433,FeCr40_10,-64.6872917520486, 159.525053160834,FeCr40,"# generated using pymatgen
 data_Cr3Fe5
_symmetry_space_group_name_H-M   'P 1'
_cell_length_a   4.97803174
_cell_length_b   4.97803174
_cell_length_c   7.04000000
_cell_angle_alpha   90.00000000
_cell_angle_beta   90.00000000
_cell_angle_gamma   90.00000000
_symmetry_Int_Tables_number   1
_chemical_formula_structural   Cr3Fe5
_chemical_formula_sum   'Cr6 Fe10'
_cell_volume   174.45683200
_cell_formula_units_Z   2
loop_
 _symmetry_equiv_pos_site_id
 _symmetry_equiv_pos_as_xyz
  1  'x, y, z'
loop_
 _atom_site_type_symbol
 _atom_site_label
 _atom_site_symmetry_multiplicity
 _atom_site_fract_x
 _atom_site_fract_y
 _atom_site_fract_z
 _atom_site_occupancy
  Fe  Fe0  1  0.00009191  0.99843250  0.99995178  1
  Fe  Fe1  1  0.24982713  0.25202716  0.25000000  1
  Fe  Fe2  1  0.00009191  0.99843250  0.50004822  1
  Cr  Cr3  1  0.24686687  0.25323316  0.75000000  1
  Fe  Fe4  1  0.00387474  0.50387474  0.00000000  1
  Fe  Fe5  1  0.24901339  0.74621566  0.25000000  1
  Fe  Fe6  1  0.00387474  0.50387474  0.50000000  1
  Fe  Fe7  1  0.24621566  0.74901339  0.75000000  1
  Cr  Cr8  1  0.49592690  0.99592690  0.00000000  1
  Cr  Cr9  1  0.75402097  0.25214354  0.25000000  1
  Cr  Cr10  1  0.49592690  0.99592690  0.50000000  1
  Cr  Cr11  1  0.75214354  0.25402097  0.75000000  1
  Fe  Fe12  1  0.49843250  0.50009191  0.00004822  1
  Cr  Cr13  1  0.75323316  0.74686687  0.25000000  1
  Fe  Fe14  1  0.49843250  0.50009191  0.49995178  1
  Fe  Fe15  1  0.75202716  0.74982713  0.75000000  1
" 