91,FeCr60_5,-63.2512888587077, 188.862017877267,FeCr60,"# generated using pymatgen
 data_Cr9Fe7
_symmetry_space_group_name_H-M   'P 1'
_cell_length_a   4.97803174
_cell_length_b   4.97803174
_cell_length_c   7.04000000
_cell_angle_alpha   90.00000000
_cell_angle_beta   90.00000000
_cell_angle_gamma   90.00000000
_symmetry_Int_Tables_number   1
_chemical_formula_structural   Cr9Fe7
_chemical_formula_sum   'Cr9 Fe7'
_cell_volume   174.45683200
_cell_formula_units_Z   1
loop_
 _symmetry_equiv_pos_site_id
 _symmetry_equiv_pos_as_xyz
  1  'x, y, z'
loop_
 _atom_site_type_symbol
 _atom_site_label
 _atom_site_symmetry_multiplicity
 _atom_site_fract_x
 _atom_site_fract_y
 _atom_site_fract_z
 _atom_site_occupancy
  Cr  Cr0  1  0.00436761  0.00000000  0.00000000  1
  Cr  Cr1  1  0.25201751  0.24789435  0.25060632  1
  Fe  Fe2  1  0.00227123  0.00000000  0.50000000  1
  Fe  Fe3  1  0.24960237  0.24966423  0.74800483  1
  Cr  Cr4  1  0.00422810  0.50000000  0.00000000  1
  Fe  Fe5  1  0.24960237  0.75033577  0.25199517  1
  Fe  Fe6  1  0.99945542  0.50000000  0.50000000  1
  Cr  Cr7  1  0.25201751  0.75210565  0.74939368  1
  Fe  Fe8  1  0.49960090  0.00000000  0.00000000  1
  Cr  Cr9  1  0.74932763  0.24881115  0.25047041  1
  Fe  Fe10  1  0.49766089  0.00000000  0.50000000  1
  Cr  Cr11  1  0.74762102  0.24838614  0.74962188  1
  Fe  Fe12  1  0.49966131  0.50000000  0.00000000  1
  Cr  Cr13  1  0.74762102  0.75161386  0.25037812  1
  Cr  Cr14  1  0.49561751  0.50000000  0.50000000  1
  Cr  Cr15  1  0.74932763  0.75118885  0.74952959  1
" 