446,FeCr70_7,-62.3962910472375, 201.742144705562,FeCr70,"# generated using pymatgen
 data_Cr11Fe5
_symmetry_space_group_name_H-M   'P 1'
_cell_length_a   4.97803174
_cell_length_b   4.97803174
_cell_length_c   7.04000000
_cell_angle_alpha   90.00000000
_cell_angle_beta   90.00000000
_cell_angle_gamma   90.00000000
_symmetry_Int_Tables_number   1
_chemical_formula_structural   Cr11Fe5
_chemical_formula_sum   'Cr11 Fe5'
_cell_volume   174.45683200
_cell_formula_units_Z   1
loop_
 _symmetry_equiv_pos_site_id
 _symmetry_equiv_pos_as_xyz
  1  'x, y, z'
loop_
 _atom_site_type_symbol
 _atom_site_label
 _atom_site_symmetry_multiplicity
 _atom_site_fract_x
 _atom_site_fract_y
 _atom_site_fract_z
 _atom_site_occupancy
  Fe  Fe0  1  0.00000000  0.00055048  0.00000000  1
  Cr  Cr1  1  0.24738656  0.24438936  0.25092943  1
  Fe  Fe2  1  0.00000000  0.00085234  0.50000000  1
  Fe  Fe3  1  0.25031773  0.24939795  0.74812244  1
  Cr  Cr4  1  0.00000000  0.49524576  0.00000000  1
  Cr  Cr5  1  0.24895798  0.75240210  0.25018249  1
  Cr  Cr6  1  0.00000000  0.49728290  0.50000000  1
  Cr  Cr7  1  0.24839065  0.75622930  0.74986020  1
  Cr  Cr8  1  0.50000000  0.00463556  0.00000000  1
  Fe  Fe9  1  0.74968227  0.24939795  0.25187756  1
  Fe  Fe10  1  0.50000000  0.00084070  0.50000000  1
  Cr  Cr11  1  0.75261344  0.24438936  0.74907057  1
  Cr  Cr12  1  0.50000000  0.49839430  0.00000000  1
  Cr  Cr13  1  0.75160935  0.75622930  0.25013980  1
  Cr  Cr14  1  0.50000000  0.49736053  0.50000000  1
  Cr  Cr15  1  0.75104202  0.75240210  0.74981751  1
" 