1,FeCr60_10,-63.3189149510102, 184.088345763332,FeCr60,"# generated using pymatgen
 data_Cr9Fe7
_symmetry_space_group_name_H-M   'P 1'
_cell_length_a   4.97803174
_cell_length_b   4.97803174
_cell_length_c   7.04000000
_cell_angle_alpha   90.00000000
_cell_angle_beta   90.00000000
_cell_angle_gamma   90.00000000
_symmetry_Int_Tables_number   1
_chemical_formula_structural   Cr9Fe7
_chemical_formula_sum   'Cr9 Fe7'
_cell_volume   174.45683200
_cell_formula_units_Z   1
loop_
 _symmetry_equiv_pos_site_id
 _symmetry_equiv_pos_as_xyz
  1  'x, y, z'
loop_
 _atom_site_type_symbol
 _atom_site_label
 _atom_site_symmetry_multiplicity
 _atom_site_fract_x
 _atom_site_fract_y
 _atom_site_fract_z
 _atom_site_occupancy
  Cr  Cr0  1  0.99891697  0.00111560  0.00009309  1
  Cr  Cr1  1  0.25000000  0.25336721  0.24860080  1
  Cr  Cr2  1  0.99838958  0.00163764  0.50018958  1
  Fe  Fe3  1  0.25000000  0.25275573  0.75293622  1
  Fe  Fe4  1  0.99910363  0.49945445  0.99805000  1
  Cr  Cr5  1  0.25000000  0.74705923  0.24929877  1
  Cr  Cr6  1  0.99841378  0.49800530  0.50111582  1
  Fe  Fe7  1  0.25000000  0.74845246  0.75220682  1
  Cr  Cr8  1  0.50108303  0.00111560  0.00009309  1
  Fe  Fe9  1  0.75000000  0.25400407  0.24674346  1
  Cr  Cr10  1  0.50161042  0.00163764  0.50018958  1
  Fe  Fe11  1  0.75000000  0.25048046  0.75311951  1
  Fe  Fe12  1  0.50089637  0.49945445  0.99805000  1
  Fe  Fe13  1  0.75000000  0.74663907  0.24740582  1
  Cr  Cr14  1  0.50158622  0.49800530  0.50111582  1
  Cr  Cr15  1  0.75000000  0.74681577  0.75079164  1
" 