26,FeCr80_3,-61.5985377990425, 202.719820696628,FeCr80,"# generated using pymatgen
 data_Cr3Fe
_symmetry_space_group_name_H-M   'P 1'
_cell_length_a   4.97803174
_cell_length_b   4.97803174
_cell_length_c   7.04000000
_cell_angle_alpha   90.00000000
_cell_angle_beta   90.00000000
_cell_angle_gamma   90.00000000
_symmetry_Int_Tables_number   1
_chemical_formula_structural   Cr3Fe
_chemical_formula_sum   'Cr12 Fe4'
_cell_volume   174.45683200
_cell_formula_units_Z   4
loop_
 _symmetry_equiv_pos_site_id
 _symmetry_equiv_pos_as_xyz
  1  'x, y, z'
loop_
 _atom_site_type_symbol
 _atom_site_label
 _atom_site_symmetry_multiplicity
 _atom_site_fract_x
 _atom_site_fract_y
 _atom_site_fract_z
 _atom_site_occupancy
  Cr  Cr0  1  0.99547035  0.00000000  0.99889825  1
  Cr  Cr1  1  0.25000000  0.25000000  0.25000000  1
  Cr  Cr2  1  0.99675080  0.00000000  0.50108507  1
  Cr  Cr3  1  0.25000000  0.25000000  0.75000000  1
  Cr  Cr4  1  0.99784235  0.50000000  0.99885597  1
  Cr  Cr5  1  0.25000000  0.75000000  0.25000000  1
  Fe  Fe6  1  0.99974669  0.50000000  0.50272186  1
  Cr  Cr7  1  0.25000000  0.75000000  0.75000000  1
  Fe  Fe8  1  0.50025331  0.00000000  0.99727814  1
  Cr  Cr9  1  0.75000000  0.25000000  0.25000000  1
  Cr  Cr10  1  0.50215765  0.00000000  0.50114403  1
  Fe  Fe11  1  0.75000000  0.25000000  0.75000000  1
  Cr  Cr12  1  0.50324920  0.50000000  0.99891493  1
  Cr  Cr13  1  0.75000000  0.75000000  0.25000000  1
  Cr  Cr14  1  0.50452965  0.50000000  0.50110175  1
  Fe  Fe15  1  0.75000000  0.75000000  0.75000000  1
" 