62,FeCr70_9,-62.4627495956857, 197.240488579442,FeCr70,"# generated using pymatgen
 data_Cr11Fe5
_symmetry_space_group_name_H-M   'P 1'
_cell_length_a   4.97803174
_cell_length_b   4.97803174
_cell_length_c   7.04000000
_cell_angle_alpha   90.00000000
_cell_angle_beta   90.00000000
_cell_angle_gamma   90.00000000
_symmetry_Int_Tables_number   1
_chemical_formula_structural   Cr11Fe5
_chemical_formula_sum   'Cr11 Fe5'
_cell_volume   174.45683200
_cell_formula_units_Z   1
loop_
 _symmetry_equiv_pos_site_id
 _symmetry_equiv_pos_as_xyz
  1  'x, y, z'
loop_
 _atom_site_type_symbol
 _atom_site_label
 _atom_site_symmetry_multiplicity
 _atom_site_fract_x
 _atom_site_fract_y
 _atom_site_fract_z
 _atom_site_occupancy
  Cr  Cr0  1  0.99801230  0.00502332  0.00084750  1
  Fe  Fe1  1  0.24742042  0.25000000  0.25324082  1
  Fe  Fe2  1  0.99967068  0.00326165  0.49819830  1
  Cr  Cr3  1  0.24546997  0.25000000  0.74841609  1
  Cr  Cr4  1  0.99801230  0.49497668  0.00084750  1
  Cr  Cr5  1  0.24788071  0.75000000  0.24995665  1
  Fe  Fe6  1  0.99967068  0.49673835  0.49819830  1
  Cr  Cr7  1  0.24774324  0.75000000  0.74970837  1
  Cr  Cr8  1  0.50153774  0.00500917  0.00062425  1
  Fe  Fe9  1  0.75320799  0.25000000  0.25381353  1
  Cr  Cr10  1  0.50127590  0.00296915  0.49967718  1
  Fe  Fe11  1  0.75095605  0.25000000  0.74643896  1
  Cr  Cr12  1  0.50153774  0.49499083  0.00062425  1
  Cr  Cr13  1  0.75257169  0.75000000  0.25066485  1
  Cr  Cr14  1  0.50127590  0.49703085  0.49967718  1
  Cr  Cr15  1  0.75375667  0.75000000  0.74906627  1
" 