20,FeCr50_12,-63.9858769361712, 184.166775050612,FeCr50,"# generated using pymatgen
 data_CrFe
_symmetry_space_group_name_H-M   'P 1'
_cell_length_a   4.97803174
_cell_length_b   4.97803174
_cell_length_c   7.04000000
_cell_angle_alpha   90.00000000
_cell_angle_beta   90.00000000
_cell_angle_gamma   90.00000000
_symmetry_Int_Tables_number   1
_chemical_formula_structural   CrFe
_chemical_formula_sum   'Cr8 Fe8'
_cell_volume   174.45683200
_cell_formula_units_Z   8
loop_
 _symmetry_equiv_pos_site_id
 _symmetry_equiv_pos_as_xyz
  1  'x, y, z'
loop_
 _atom_site_type_symbol
 _atom_site_label
 _atom_site_symmetry_multiplicity
 _atom_site_fract_x
 _atom_site_fract_y
 _atom_site_fract_z
 _atom_site_occupancy
  Cr  Cr0  1  0.00222459  0.99807432  0.99961363  1
  Cr  Cr1  1  0.25961260  0.24665857  0.25078659  1
  Cr  Cr2  1  0.00111945  0.99872532  0.50022297  1
  Fe  Fe3  1  0.25013260  0.24931963  0.74856895  1
  Cr  Cr4  1  0.00102465  0.50120269  0.99974700  1
  Fe  Fe5  1  0.24926518  0.74929972  0.25158012  1
  Cr  Cr6  1  0.00135832  0.50113058  0.50006903  1
  Fe  Fe7  1  0.25438215  0.75163598  0.74831550  1
  Fe  Fe8  1  0.49929101  0.99938431  0.99733291  1
  Fe  Fe9  1  0.75183204  0.25101143  0.25093101  1
  Fe  Fe10  1  0.49896396  0.99809071  0.50266855  1
  Cr  Cr11  1  0.74474007  0.24821663  0.74977613  1
  Cr  Cr12  1  0.49780179  0.50224808  0.99908872  1
  Cr  Cr13  1  0.74131586  0.75356281  0.25049319  1
  Fe  Fe14  1  0.49933185  0.50144950  0.50209094  1
  Fe  Fe15  1  0.74760387  0.74998972  0.74871476  1
" 