205,FeCr20_10,-65.5339588889982, 129.995709060167,FeCr20,"# generated using pymatgen
 data_Cr3Fe13
_symmetry_space_group_name_H-M   'P 1'
_cell_length_a   4.97803174
_cell_length_b   4.97803174
_cell_length_c   7.04000000
_cell_angle_alpha   90.00000000
_cell_angle_beta   90.00000000
_cell_angle_gamma   90.00000000
_symmetry_Int_Tables_number   1
_chemical_formula_structural   Cr3Fe13
_chemical_formula_sum   'Cr3 Fe13'
_cell_volume   174.45683200
_cell_formula_units_Z   1
loop_
 _symmetry_equiv_pos_site_id
 _symmetry_equiv_pos_as_xyz
  1  'x, y, z'
loop_
 _atom_site_type_symbol
 _atom_site_label
 _atom_site_symmetry_multiplicity
 _atom_site_fract_x
 _atom_site_fract_y
 _atom_site_fract_z
 _atom_site_occupancy
  Fe  Fe0  1  0.99828164  0.99990050  0.99769295  1
  Cr  Cr1  1  0.25000000  0.24437938  0.25065033  1
  Fe  Fe2  1  0.99901793  0.99859997  0.50192000  1
  Fe  Fe3  1  0.25000000  0.24877949  0.74749054  1
  Cr  Cr4  1  0.99841062  0.50241495  0.99958932  1
  Fe  Fe5  1  0.25000000  0.74879654  0.25353342  1
  Fe  Fe6  1  0.99923589  0.50027546  0.50129073  1
  Fe  Fe7  1  0.25000000  0.75219501  0.74705376  1
  Fe  Fe8  1  0.50171836  0.99990050  0.99769295  1
  Fe  Fe9  1  0.75000000  0.24867642  0.25324668  1
  Fe  Fe10  1  0.50098207  0.99859997  0.50192000  1
  Fe  Fe11  1  0.75000000  0.24876138  0.74696730  1
  Cr  Cr12  1  0.50158938  0.50241495  0.99958932  1
  Fe  Fe13  1  0.75000000  0.75380521  0.25344575  1
  Fe  Fe14  1  0.50076411  0.50027546  0.50129073  1
  Fe  Fe15  1  0.75000000  0.75222481  0.74662620  1
" 