215,FeCr80_2,-61.6801179654915, 209.527797509417,FeCr80,"# generated using pymatgen
 data_Cr3Fe
_symmetry_space_group_name_H-M   'P 1'
_cell_length_a   4.97803174
_cell_length_b   4.97803174
_cell_length_c   7.04000000
_cell_angle_alpha   90.00000000
_cell_angle_beta   90.00000000
_cell_angle_gamma   90.00000000
_symmetry_Int_Tables_number   1
_chemical_formula_structural   Cr3Fe
_chemical_formula_sum   'Cr12 Fe4'
_cell_volume   174.45683200
_cell_formula_units_Z   4
loop_
 _symmetry_equiv_pos_site_id
 _symmetry_equiv_pos_as_xyz
  1  'x, y, z'
loop_
 _atom_site_type_symbol
 _atom_site_label
 _atom_site_symmetry_multiplicity
 _atom_site_fract_x
 _atom_site_fract_y
 _atom_site_fract_z
 _atom_site_occupancy
  Fe  Fe0  1  0.99988753  0.00011247  0.99825939  1
  Cr  Cr1  1  0.24793762  0.24736863  0.24938660  1
  Cr  Cr2  1  0.00167932  0.99832068  0.50087504  1
  Cr  Cr3  1  0.24763990  0.24795520  0.75046650  1
  Cr  Cr4  1  0.00160602  0.50211561  0.99955658  1
  Fe  Fe5  1  0.24988872  0.75011128  0.24857213  1
  Cr  Cr6  1  0.00170660  0.50144874  0.50058242  1
  Fe  Fe7  1  0.25004959  0.74995041  0.75151804  1
  Cr  Cr8  1  0.49788439  0.99839398  0.99955658  1
  Cr  Cr9  1  0.75106030  0.24893970  0.24972144  1
  Cr  Cr10  1  0.49855126  0.99829340  0.50058242  1
  Fe  Fe11  1  0.74958268  0.25041732  0.75098361  1
  Cr  Cr12  1  0.49920506  0.50079494  0.99982889  1
  Cr  Cr13  1  0.75263137  0.75206238  0.24938660  1
  Cr  Cr14  1  0.49864484  0.50135516  0.50025723  1
  Cr  Cr15  1  0.75204480  0.75236010  0.75046650  1
" 