176,FeCr70_8,-62.4913840694512, 201.707478621668,FeCr70,"# generated using pymatgen
 data_Cr11Fe5
_symmetry_space_group_name_H-M   'P 1'
_cell_length_a   4.97803174
_cell_length_b   4.97803174
_cell_length_c   7.04000000
_cell_angle_alpha   90.00000000
_cell_angle_beta   90.00000000
_cell_angle_gamma   90.00000000
_symmetry_Int_Tables_number   1
_chemical_formula_structural   Cr11Fe5
_chemical_formula_sum   'Cr11 Fe5'
_cell_volume   174.45683200
_cell_formula_units_Z   1
loop_
 _symmetry_equiv_pos_site_id
 _symmetry_equiv_pos_as_xyz
  1  'x, y, z'
loop_
 _atom_site_type_symbol
 _atom_site_label
 _atom_site_symmetry_multiplicity
 _atom_site_fract_x
 _atom_site_fract_y
 _atom_site_fract_z
 _atom_site_occupancy
  Cr  Cr0  1  0.99514794  0.99462758  0.00000000  1
  Cr  Cr1  1  0.24767896  0.25063500  0.25006352  1
  Fe  Fe2  1  0.99897937  0.99770100  0.50000000  1
  Cr  Cr3  1  0.24767896  0.25063500  0.74993648  1
  Fe  Fe4  1  0.99962576  0.49977495  0.00000000  1
  Cr  Cr5  1  0.24373064  0.74795767  0.25020456  1
  Fe  Fe6  1  0.99881722  0.50302042  0.50000000  1
  Cr  Cr7  1  0.24373064  0.74795767  0.74979544  1
  Cr  Cr8  1  0.50159061  0.99822463  0.00000000  1
  Cr  Cr9  1  0.75573655  0.25234838  0.25087723  1
  Cr  Cr10  1  0.50249584  0.99809663  0.50000000  1
  Cr  Cr11  1  0.75573655  0.25234838  0.74912277  1
  Cr  Cr12  1  0.50507167  0.50392010  0.00000000  1
  Fe  Fe13  1  0.75072017  0.75006233  0.25214102  1
  Cr  Cr14  1  0.50253897  0.50262794  0.50000000  1
  Fe  Fe15  1  0.75072017  0.75006233  0.74785898  1
" 