364,FeCr20_8,-65.5513604438592, 134.360996077489,FeCr20,"# generated using pymatgen
 data_Cr3Fe13
_symmetry_space_group_name_H-M   'P 1'
_cell_length_a   4.97803174
_cell_length_b   4.97803174
_cell_length_c   7.04000000
_cell_angle_alpha   90.00000000
_cell_angle_beta   90.00000000
_cell_angle_gamma   90.00000000
_symmetry_Int_Tables_number   1
_chemical_formula_structural   Cr3Fe13
_chemical_formula_sum   'Cr3 Fe13'
_cell_volume   174.45683200
_cell_formula_units_Z   1
loop_
 _symmetry_equiv_pos_site_id
 _symmetry_equiv_pos_as_xyz
  1  'x, y, z'
loop_
 _atom_site_type_symbol
 _atom_site_label
 _atom_site_symmetry_multiplicity
 _atom_site_fract_x
 _atom_site_fract_y
 _atom_site_fract_z
 _atom_site_occupancy
  Fe  Fe0  1  0.00053842  0.00029580  0.99813478  1
  Fe  Fe1  1  0.24947347  0.24769408  0.25000000  1
  Fe  Fe2  1  0.00053842  0.00029580  0.50186522  1
  Fe  Fe3  1  0.25244095  0.24849584  0.75000000  1
  Cr  Cr4  1  0.00227847  0.50227847  0.00003315  1
  Fe  Fe5  1  0.25374166  0.75374166  0.25000000  1
  Cr  Cr6  1  0.00227847  0.50227847  0.49996685  1
  Fe  Fe7  1  0.25251149  0.75251149  0.75000000  1
  Fe  Fe8  1  0.49793749  0.99793749  0.99773903  1
  Cr  Cr9  1  0.74491156  0.24491156  0.25000000  1
  Fe  Fe10  1  0.49793749  0.99793749  0.50226097  1
  Fe  Fe11  1  0.74863057  0.24863057  0.75000000  1
  Fe  Fe12  1  0.50029580  0.50053842  0.99813478  1
  Fe  Fe13  1  0.74769408  0.74947347  0.25000000  1
  Fe  Fe14  1  0.50029580  0.50053842  0.50186522  1
  Fe  Fe15  1  0.74849584  0.75244095  0.75000000  1
" 