29,FeCr40_6,-64.6957967417691, 153.346246282172,FeCr40,"# generated using pymatgen
 data_Cr3Fe5
_symmetry_space_group_name_H-M   'P 1'
_cell_length_a   4.97803174
_cell_length_b   4.97803174
_cell_length_c   7.04000000
_cell_angle_alpha   90.00000000
_cell_angle_beta   90.00000000
_cell_angle_gamma   90.00000000
_symmetry_Int_Tables_number   1
_chemical_formula_structural   Cr3Fe5
_chemical_formula_sum   'Cr6 Fe10'
_cell_volume   174.45683200
_cell_formula_units_Z   2
loop_
 _symmetry_equiv_pos_site_id
 _symmetry_equiv_pos_as_xyz
  1  'x, y, z'
loop_
 _atom_site_type_symbol
 _atom_site_label
 _atom_site_symmetry_multiplicity
 _atom_site_fract_x
 _atom_site_fract_y
 _atom_site_fract_z
 _atom_site_occupancy
  Cr  Cr0  1  0.99840462  0.99757620  0.00182421  1
  Fe  Fe1  1  0.24945580  0.25027674  0.25126394  1
  Fe  Fe2  1  0.99864605  0.99900858  0.49554030  1
  Cr  Cr3  1  0.24874646  0.25086985  0.74941793  1
  Fe  Fe4  1  0.99876956  0.49961320  0.00554643  1
  Fe  Fe5  1  0.24927747  0.74912886  0.25135499  1
  Fe  Fe6  1  0.00052442  0.50078540  0.49461699  1
  Cr  Cr7  1  0.24666436  0.74728171  0.74938057  1
  Cr  Cr8  1  0.50124102  0.99762690  0.00116398  1
  Fe  Fe9  1  0.75100724  0.25035569  0.25149171  1
  Fe  Fe10  1  0.50033905  0.00092314  0.49612642  1
  Cr  Cr11  1  0.75261335  0.25388777  0.74925691  1
  Fe  Fe12  1  0.50090917  0.49971807  0.00479534  1
  Fe  Fe13  1  0.75123723  0.74904442  0.25159224  1
  Cr  Cr14  1  0.50217661  0.50261863  0.49867681  1
  Fe  Fe15  1  0.74998760  0.75128485  0.74795124  1
" 