173,FeCr30_12,-65.3854497058208, 137.879446650774,FeCr30,"# generated using pymatgen
 data_CrFe3
_symmetry_space_group_name_H-M   'P 1'
_cell_length_a   4.97803174
_cell_length_b   4.97803174
_cell_length_c   7.04000000
_cell_angle_alpha   90.00000000
_cell_angle_beta   90.00000000
_cell_angle_gamma   90.00000000
_symmetry_Int_Tables_number   1
_chemical_formula_structural   CrFe3
_chemical_formula_sum   'Cr4 Fe12'
_cell_volume   174.45683200
_cell_formula_units_Z   4
loop_
 _symmetry_equiv_pos_site_id
 _symmetry_equiv_pos_as_xyz
  1  'x, y, z'
loop_
 _atom_site_type_symbol
 _atom_site_label
 _atom_site_symmetry_multiplicity
 _atom_site_fract_x
 _atom_site_fract_y
 _atom_site_fract_z
 _atom_site_occupancy
  Fe  Fe0  1  0.99878603  0.00000000  0.99698975  1
  Cr  Cr1  1  0.25000000  0.25000000  0.24921854  1
  Fe  Fe2  1  0.00309578  0.00000000  0.50387324  1
  Fe  Fe3  1  0.25000000  0.25000000  0.75219123  1
  Fe  Fe4  1  0.99875171  0.50000000  0.99705556  1
  Cr  Cr5  1  0.25000000  0.75000000  0.24921854  1
  Cr  Cr6  1  0.99148707  0.50000000  0.50105384  1
  Fe  Fe7  1  0.25000000  0.75000000  0.75219123  1
  Fe  Fe8  1  0.50124829  0.00000000  0.99705556  1
  Fe  Fe9  1  0.75000000  0.25000000  0.24551025  1
  Cr  Cr10  1  0.50851293  0.00000000  0.50105384  1
  Fe  Fe11  1  0.75000000  0.25000000  0.75410761  1
  Fe  Fe12  1  0.50121397  0.50000000  0.99698975  1
  Fe  Fe13  1  0.75000000  0.75000000  0.24551025  1
  Fe  Fe14  1  0.49690422  0.50000000  0.50387324  1
  Fe  Fe15  1  0.75000000  0.75000000  0.75410761  1
" 