27,FeCr30_0,-65.3430310960653, 141.156173130448,FeCr30,"# generated using pymatgen
 data_CrFe3
_symmetry_space_group_name_H-M   'P 1'
_cell_length_a   4.97803174
_cell_length_b   4.97803174
_cell_length_c   7.04000000
_cell_angle_alpha   90.00000000
_cell_angle_beta   90.00000000
_cell_angle_gamma   90.00000000
_symmetry_Int_Tables_number   1
_chemical_formula_structural   CrFe3
_chemical_formula_sum   'Cr4 Fe12'
_cell_volume   174.45683200
_cell_formula_units_Z   4
loop_
 _symmetry_equiv_pos_site_id
 _symmetry_equiv_pos_as_xyz
  1  'x, y, z'
loop_
 _atom_site_type_symbol
 _atom_site_label
 _atom_site_symmetry_multiplicity
 _atom_site_fract_x
 _atom_site_fract_y
 _atom_site_fract_z
 _atom_site_occupancy
  Fe  Fe0  1  0.99779263  0.99929385  0.99881123  1
  Cr  Cr1  1  0.25207266  0.25127780  0.24992763  1
  Cr  Cr2  1  0.99222955  0.99757196  0.50033748  1
  Cr  Cr3  1  0.25169464  0.25236639  0.74991483  1
  Fe  Fe4  1  0.99756560  0.50122720  0.99860140  1
  Cr  Cr5  1  0.25176633  0.74842270  0.24961516  1
  Fe  Fe6  1  0.99710978  0.49996219  0.50136313  1
  Fe  Fe7  1  0.25017027  0.75054721  0.75154964  1
  Fe  Fe8  1  0.50355651  0.99923335  0.99868224  1
  Fe  Fe9  1  0.74982260  0.25125816  0.24774184  1
  Fe  Fe10  1  0.49929097  0.99857092  0.50166420  1
  Fe  Fe11  1  0.74985762  0.25082680  0.75209714  1
  Fe  Fe12  1  0.50373271  0.50123702  0.99852353  1
  Fe  Fe13  1  0.74951910  0.74815836  0.24746927  1
  Fe  Fe14  1  0.50592198  0.50177576  0.50145591  1
  Fe  Fe15  1  0.74789705  0.74827033  0.75224539  1
" 