236,FeCr40_1,-64.6857011617001, 160.31375933477,FeCr40,"# generated using pymatgen
 data_Cr3Fe5
_symmetry_space_group_name_H-M   'P 1'
_cell_length_a   4.97803174
_cell_length_b   4.97803174
_cell_length_c   7.04000000
_cell_angle_alpha   90.00000000
_cell_angle_beta   90.00000000
_cell_angle_gamma   90.00000000
_symmetry_Int_Tables_number   1
_chemical_formula_structural   Cr3Fe5
_chemical_formula_sum   'Cr6 Fe10'
_cell_volume   174.45683200
_cell_formula_units_Z   2
loop_
 _symmetry_equiv_pos_site_id
 _symmetry_equiv_pos_as_xyz
  1  'x, y, z'
loop_
 _atom_site_type_symbol
 _atom_site_label
 _atom_site_symmetry_multiplicity
 _atom_site_fract_x
 _atom_site_fract_y
 _atom_site_fract_z
 _atom_site_occupancy
  Fe  Fe0  1  0.00002477  0.99623823  0.00331219  1
  Cr  Cr1  1  0.25000000  0.24721474  0.25000000  1
  Fe  Fe2  1  0.99926787  0.99979374  0.49661774  1
  Cr  Cr3  1  0.25000000  0.24417238  0.75000000  1
  Fe  Fe4  1  0.99964906  0.50135984  0.00235211  1
  Fe  Fe5  1  0.25000000  0.75065527  0.25000000  1
  Cr  Cr6  1  0.00015463  0.50403457  0.49939860  1
  Fe  Fe7  1  0.25000000  0.74989815  0.75000000  1
  Fe  Fe8  1  0.50073213  0.99979374  0.00338226  1
  Fe  Fe9  1  0.75000000  0.24918725  0.25000000  1
  Fe  Fe10  1  0.49997523  0.99623823  0.49668781  1
  Cr  Cr11  1  0.75000000  0.24805908  0.75000000  1
  Cr  Cr12  1  0.49984537  0.50403457  0.00060140  1
  Fe  Fe13  1  0.75000000  0.75327960  0.25000000  1
  Fe  Fe14  1  0.50035094  0.50135984  0.49764789  1
  Cr  Cr15  1  0.75000000  0.75468077  0.75000000  1
" 