94,FeCr20_11,-65.5339588889982, 129.995709058557,FeCr20,"# generated using pymatgen
 data_Cr3Fe13
_symmetry_space_group_name_H-M   'P 1'
_cell_length_a   4.97803174
_cell_length_b   4.97803174
_cell_length_c   7.04000000
_cell_angle_alpha   90.00000000
_cell_angle_beta   90.00000000
_cell_angle_gamma   90.00000000
_symmetry_Int_Tables_number   1
_chemical_formula_structural   Cr3Fe13
_chemical_formula_sum   'Cr3 Fe13'
_cell_volume   174.45683200
_cell_formula_units_Z   1
loop_
 _symmetry_equiv_pos_site_id
 _symmetry_equiv_pos_as_xyz
  1  'x, y, z'
loop_
 _atom_site_type_symbol
 _atom_site_label
 _atom_site_symmetry_multiplicity
 _atom_site_fract_x
 _atom_site_fract_y
 _atom_site_fract_z
 _atom_site_occupancy
  Fe  Fe0  1  0.99859997  0.00098207  0.00192000  1
  Fe  Fe1  1  0.24876138  0.25000000  0.24696730  1
  Fe  Fe2  1  0.99990050  0.00171836  0.49769295  1
  Fe  Fe3  1  0.24867642  0.25000000  0.75324668  1
  Fe  Fe4  1  0.99859997  0.49901793  0.00192000  1
  Fe  Fe5  1  0.24877949  0.75000000  0.24749054  1
  Fe  Fe6  1  0.99990050  0.49828164  0.49769295  1
  Cr  Cr7  1  0.24437938  0.75000000  0.75065033  1
  Fe  Fe8  1  0.50027546  0.00076411  0.00129073  1
  Fe  Fe9  1  0.75222481  0.25000000  0.24662620  1
  Cr  Cr10  1  0.50241495  0.00158938  0.49958932  1
  Fe  Fe11  1  0.75380521  0.25000000  0.75344575  1
  Fe  Fe12  1  0.50027546  0.49923589  0.00129073  1
  Fe  Fe13  1  0.75219501  0.75000000  0.24705376  1
  Cr  Cr14  1  0.50241495  0.49841062  0.49958932  1
  Fe  Fe15  1  0.74879654  0.75000000  0.75353342  1
" 