407,FeCr30_13,-65.3430310960653, 141.156173128554,FeCr30,"# generated using pymatgen
 data_CrFe3
_symmetry_space_group_name_H-M   'P 1'
_cell_length_a   4.97803174
_cell_length_b   4.97803174
_cell_length_c   7.04000000
_cell_angle_alpha   90.00000000
_cell_angle_beta   90.00000000
_cell_angle_gamma   90.00000000
_symmetry_Int_Tables_number   1
_chemical_formula_structural   CrFe3
_chemical_formula_sum   'Cr4 Fe12'
_cell_volume   174.45683200
_cell_formula_units_Z   4
loop_
 _symmetry_equiv_pos_site_id
 _symmetry_equiv_pos_as_xyz
  1  'x, y, z'
loop_
 _atom_site_type_symbol
 _atom_site_label
 _atom_site_symmetry_multiplicity
 _atom_site_fract_x
 _atom_site_fract_y
 _atom_site_fract_z
 _atom_site_occupancy
  Cr  Cr0  1  0.00176633  0.00157730  0.99961516  1
  Fe  Fe1  1  0.25592198  0.24822424  0.25145591  1
  Fe  Fe2  1  0.00017027  0.99945279  0.50154964  1
  Fe  Fe3  1  0.25373271  0.24876298  0.74852353  1
  Cr  Cr4  1  0.00207266  0.49872220  0.99992763  1
  Fe  Fe5  1  0.24929097  0.75142908  0.25166420  1
  Cr  Cr6  1  0.00169464  0.49763361  0.49991483  1
  Fe  Fe7  1  0.25355651  0.75076665  0.74868224  1
  Fe  Fe8  1  0.49951910  0.00184164  0.99746927  1
  Fe  Fe9  1  0.74710978  0.25003781  0.25136313  1
  Fe  Fe10  1  0.49789705  0.00172967  0.50224539  1
  Fe  Fe11  1  0.74756560  0.24877280  0.74860140  1
  Fe  Fe12  1  0.49982260  0.49874184  0.99774184  1
  Cr  Cr13  1  0.74222955  0.75242804  0.25033748  1
  Fe  Fe14  1  0.49985762  0.49917320  0.50209714  1
  Fe  Fe15  1  0.74779263  0.75070615  0.74881123  1
" 