231,FeCr30_3,-65.310338041379, 146.126464711443,FeCr30,"# generated using pymatgen
 data_CrFe3
_symmetry_space_group_name_H-M   'P 1'
_cell_length_a   4.97803174
_cell_length_b   4.97803174
_cell_length_c   7.04000000
_cell_angle_alpha   90.00000000
_cell_angle_beta   90.00000000
_cell_angle_gamma   90.00000000
_symmetry_Int_Tables_number   1
_chemical_formula_structural   CrFe3
_chemical_formula_sum   'Cr4 Fe12'
_cell_volume   174.45683200
_cell_formula_units_Z   4
loop_
 _symmetry_equiv_pos_site_id
 _symmetry_equiv_pos_as_xyz
  1  'x, y, z'
loop_
 _atom_site_type_symbol
 _atom_site_label
 _atom_site_symmetry_multiplicity
 _atom_site_fract_x
 _atom_site_fract_y
 _atom_site_fract_z
 _atom_site_occupancy
  Cr  Cr0  1  0.99565953  0.00000000  0.00000000  1
  Cr  Cr1  1  0.25398338  0.25504729  0.25000000  1
  Cr  Cr2  1  0.99565953  0.00000000  0.50000000  1
  Fe  Fe3  1  0.25152671  0.24901507  0.75000000  1
  Fe  Fe4  1  0.99841254  0.50000000  0.00000000  1
  Fe  Fe5  1  0.25152671  0.75098493  0.25000000  1
  Fe  Fe6  1  0.99841254  0.50000000  0.50000000  1
  Cr  Cr7  1  0.25398338  0.74495271  0.75000000  1
  Fe  Fe8  1  0.49992456  0.00000000  0.00000000  1
  Fe  Fe9  1  0.74978930  0.25251597  0.25000000  1
  Fe  Fe10  1  0.49992456  0.00000000  0.50000000  1
  Fe  Fe11  1  0.74633570  0.25281571  0.75000000  1
  Fe  Fe12  1  0.50436828  0.50000000  0.00000000  1
  Fe  Fe13  1  0.74633570  0.74718429  0.25000000  1
  Fe  Fe14  1  0.50436828  0.50000000  0.50000000  1
  Fe  Fe15  1  0.74978930  0.74748403  0.75000000  1
" 