150,FeCr50_9,-63.9880817702454, 180.832473590006,FeCr50,"# generated using pymatgen
 data_CrFe
_symmetry_space_group_name_H-M   'P 1'
_cell_length_a   4.97803174
_cell_length_b   4.97803174
_cell_length_c   7.04000000
_cell_angle_alpha   90.00000000
_cell_angle_beta   90.00000000
_cell_angle_gamma   90.00000000
_symmetry_Int_Tables_number   1
_chemical_formula_structural   CrFe
_chemical_formula_sum   'Cr8 Fe8'
_cell_volume   174.45683200
_cell_formula_units_Z   8
loop_
 _symmetry_equiv_pos_site_id
 _symmetry_equiv_pos_as_xyz
  1  'x, y, z'
loop_
 _atom_site_type_symbol
 _atom_site_label
 _atom_site_symmetry_multiplicity
 _atom_site_fract_x
 _atom_site_fract_y
 _atom_site_fract_z
 _atom_site_occupancy
  Cr  Cr0  1  0.00380353  0.00000000  0.99992761  1
  Cr  Cr1  1  0.25378775  0.25321259  0.25000000  1
  Cr  Cr2  1  0.00380353  0.00000000  0.50007239  1
  Fe  Fe3  1  0.25054331  0.25217707  0.75000000  1
  Fe  Fe4  1  0.00205052  0.50000000  0.99745109  1
  Cr  Cr5  1  0.25378775  0.74678741  0.25000000  1
  Fe  Fe6  1  0.00205052  0.50000000  0.50254891  1
  Fe  Fe7  1  0.25054331  0.74782293  0.75000000  1
  Fe  Fe8  1  0.49940621  0.00000000  0.99741968  1
  Cr  Cr9  1  0.74712213  0.25341662  0.25000000  1
  Fe  Fe10  1  0.49940621  0.00000000  0.50258032  1
  Cr  Cr11  1  0.74732175  0.25211794  0.75000000  1
  Fe  Fe12  1  0.49596480  0.50000000  0.99640398  1
  Cr  Cr13  1  0.74712213  0.74658338  0.25000000  1
  Fe  Fe14  1  0.49596480  0.50000000  0.50359602  1
  Cr  Cr15  1  0.74732175  0.74788206  0.75000000  1
" 