414,FeCr60_13,-63.0134501952458, 183.358982703911,FeCr60,"# generated using pymatgen
 data_Cr9Fe7
_symmetry_space_group_name_H-M   'P 1'
_cell_length_a   4.97803174
_cell_length_b   4.97803174
_cell_length_c   7.04000000
_cell_angle_alpha   90.00000000
_cell_angle_beta   90.00000000
_cell_angle_gamma   90.00000000
_symmetry_Int_Tables_number   1
_chemical_formula_structural   Cr9Fe7
_chemical_formula_sum   'Cr9 Fe7'
_cell_volume   174.45683200
_cell_formula_units_Z   1
loop_
 _symmetry_equiv_pos_site_id
 _symmetry_equiv_pos_as_xyz
  1  'x, y, z'
loop_
 _atom_site_type_symbol
 _atom_site_label
 _atom_site_symmetry_multiplicity
 _atom_site_fract_x
 _atom_site_fract_y
 _atom_site_fract_z
 _atom_site_occupancy
  Fe  Fe0  1  0.00013216  0.00172505  0.00164097  1
  Fe  Fe1  1  0.25000000  0.25000000  0.25000000  1
  Cr  Cr2  1  0.99784080  0.00132300  0.49944588  1
  Cr  Cr3  1  0.25000000  0.25000000  0.75000000  1
  Fe  Fe4  1  0.00013216  0.49827495  0.00164097  1
  Cr  Cr5  1  0.25000000  0.75000000  0.25000000  1
  Cr  Cr6  1  0.99784080  0.49867700  0.49944588  1
  Cr  Cr7  1  0.25000000  0.75000000  0.75000000  1
  Cr  Cr8  1  0.50215920  0.00132300  0.00055412  1
  Fe  Fe9  1  0.75000000  0.25000000  0.25000000  1
  Fe  Fe10  1  0.49986784  0.00172505  0.49835903  1
  Cr  Cr11  1  0.75000000  0.25000000  0.75000000  1
  Cr  Cr12  1  0.50215920  0.49867700  0.00055412  1
  Cr  Cr13  1  0.75000000  0.75000000  0.25000000  1
  Fe  Fe14  1  0.49986784  0.49827495  0.49835903  1
  Fe  Fe15  1  0.75000000  0.75000000  0.75000000  1
" 