87,FeCr50_1,-63.8944160013368, 175.846798901107,FeCr50,"# generated using pymatgen
 data_CrFe
_symmetry_space_group_name_H-M   'P 1'
_cell_length_a   4.97803174
_cell_length_b   4.97803174
_cell_length_c   7.04000000
_cell_angle_alpha   90.00000000
_cell_angle_beta   90.00000000
_cell_angle_gamma   90.00000000
_symmetry_Int_Tables_number   1
_chemical_formula_structural   CrFe
_chemical_formula_sum   'Cr8 Fe8'
_cell_volume   174.45683200
_cell_formula_units_Z   8
loop_
 _symmetry_equiv_pos_site_id
 _symmetry_equiv_pos_as_xyz
  1  'x, y, z'
loop_
 _atom_site_type_symbol
 _atom_site_label
 _atom_site_symmetry_multiplicity
 _atom_site_fract_x
 _atom_site_fract_y
 _atom_site_fract_z
 _atom_site_occupancy
  Fe  Fe0  1  0.00073471  0.99955680  0.00167332  1
  Fe  Fe1  1  0.25032008  0.24890524  0.25577467  1
  Fe  Fe2  1  0.00103115  0.00064416  0.49823763  1
  Cr  Cr3  1  0.24644291  0.24778883  0.74737949  1
  Cr  Cr4  1  0.00251764  0.49645910  0.00085810  1
  Fe  Fe5  1  0.25035010  0.75066641  0.25492511  1
  Fe  Fe6  1  0.00084676  0.49973410  0.49851060  1
  Cr  Cr7  1  0.24889814  0.75076535  0.74800527  1
  Cr  Cr8  1  0.49693456  0.00263921  0.00075356  1
  Cr  Cr9  1  0.75198300  0.24862882  0.25140575  1
  Fe  Fe10  1  0.49940840  0.00071542  0.49863714  1
  Fe  Fe11  1  0.74866611  0.25098009  0.74477921  1
  Cr  Cr12  1  0.49850495  0.49881689  0.00054598  1
  Cr  Cr13  1  0.75196089  0.75091343  0.25052489  1
  Fe  Fe14  1  0.49953108  0.49969288  0.49887659  1
  Cr  Cr15  1  0.75186954  0.75309328  0.74911270  1
" 