107,FeCr60_9,-63.3662569941537, 195.537794918335,FeCr60,"# generated using pymatgen
 data_Cr9Fe7
_symmetry_space_group_name_H-M   'P 1'
_cell_length_a   4.97803174
_cell_length_b   4.97803174
_cell_length_c   7.04000000
_cell_angle_alpha   90.00000000
_cell_angle_beta   90.00000000
_cell_angle_gamma   90.00000000
_symmetry_Int_Tables_number   1
_chemical_formula_structural   Cr9Fe7
_chemical_formula_sum   'Cr9 Fe7'
_cell_volume   174.45683200
_cell_formula_units_Z   1
loop_
 _symmetry_equiv_pos_site_id
 _symmetry_equiv_pos_as_xyz
  1  'x, y, z'
loop_
 _atom_site_type_symbol
 _atom_site_label
 _atom_site_symmetry_multiplicity
 _atom_site_fract_x
 _atom_site_fract_y
 _atom_site_fract_z
 _atom_site_occupancy
  Fe  Fe0  1  0.00084845  0.00002204  0.99903171  1
  Cr  Cr1  1  0.25337857  0.25000000  0.25000000  1
  Cr  Cr2  1  0.00190313  0.99789567  0.50025287  1
  Cr  Cr3  1  0.25305438  0.25000000  0.75000000  1
  Cr  Cr4  1  0.00190313  0.50210433  0.99974713  1
  Cr  Cr5  1  0.25313474  0.75000000  0.25000000  1
  Fe  Fe6  1  0.00084845  0.49997796  0.50096829  1
  Fe  Fe7  1  0.25042999  0.75000000  0.75000000  1
  Fe  Fe8  1  0.49816765  0.99832394  0.99850572  1
  Cr  Cr9  1  0.74715526  0.25000000  0.25000000  1
  Fe  Fe10  1  0.49966305  0.99877554  0.50142054  1
  Cr  Cr11  1  0.74812920  0.25000000  0.75000000  1
  Fe  Fe12  1  0.49966305  0.50122446  0.99857946  1
  Cr  Cr13  1  0.74718041  0.75000000  0.25000000  1
  Fe  Fe14  1  0.49816765  0.50167606  0.50149428  1
  Cr  Cr15  1  0.74637288  0.75000000  0.75000000  1
" 