136,FeCr60_2,-63.6681691865754, 186.200766137219,FeCr60,"# generated using pymatgen
 data_Cr9Fe7
_symmetry_space_group_name_H-M   'P 1'
_cell_length_a   4.97803174
_cell_length_b   4.97803174
_cell_length_c   7.04000000
_cell_angle_alpha   90.00000000
_cell_angle_beta   90.00000000
_cell_angle_gamma   90.00000000
_symmetry_Int_Tables_number   1
_chemical_formula_structural   Cr9Fe7
_chemical_formula_sum   'Cr9 Fe7'
_cell_volume   174.45683200
_cell_formula_units_Z   1
loop_
 _symmetry_equiv_pos_site_id
 _symmetry_equiv_pos_as_xyz
  1  'x, y, z'
loop_
 _atom_site_type_symbol
 _atom_site_label
 _atom_site_symmetry_multiplicity
 _atom_site_fract_x
 _atom_site_fract_y
 _atom_site_fract_z
 _atom_site_occupancy
  Cr  Cr0  1  0.00458165  0.00500113  0.00170022  1
  Fe  Fe1  1  0.24547532  0.25174272  0.25205742  1
  Fe  Fe2  1  0.00092200  0.00219764  0.49644737  1
  Fe  Fe3  1  0.24940220  0.24974073  0.74804333  1
  Fe  Fe4  1  0.00062490  0.49989719  0.00408704  1
  Fe  Fe5  1  0.24953000  0.74957740  0.25156022  1
  Fe  Fe6  1  0.00111035  0.49707693  0.49596970  1
  Cr  Cr7  1  0.24309621  0.74694435  0.74906051  1
  Cr  Cr8  1  0.49837252  0.00201875  0.00031207  1
  Fe  Fe9  1  0.75149203  0.25015348  0.25128907  1
  Cr  Cr10  1  0.49726272  0.00200958  0.50000306  1
  Cr  Cr11  1  0.75817339  0.25241172  0.74952322  1
  Cr  Cr12  1  0.49533222  0.49611761  0.00068676  1
  Cr  Cr13  1  0.75410285  0.74865822  0.24992109  1
  Cr  Cr14  1  0.49737925  0.49738442  0.49955919  1
  Cr  Cr15  1  0.75314240  0.74906812  0.74977973  1
" 