30,FeCr80_8,-61.807261097354, 203.498708233887,FeCr80,"# generated using pymatgen
 data_Cr3Fe
_symmetry_space_group_name_H-M   'P 1'
_cell_length_a   4.97803174
_cell_length_b   4.97803174
_cell_length_c   7.04000000
_cell_angle_alpha   90.00000000
_cell_angle_beta   90.00000000
_cell_angle_gamma   90.00000000
_symmetry_Int_Tables_number   1
_chemical_formula_structural   Cr3Fe
_chemical_formula_sum   'Cr12 Fe4'
_cell_volume   174.45683200
_cell_formula_units_Z   4
loop_
 _symmetry_equiv_pos_site_id
 _symmetry_equiv_pos_as_xyz
  1  'x, y, z'
loop_
 _atom_site_type_symbol
 _atom_site_label
 _atom_site_symmetry_multiplicity
 _atom_site_fract_x
 _atom_site_fract_y
 _atom_site_fract_z
 _atom_site_occupancy
  Fe  Fe0  1  0.00000000  0.00001511  0.00285939  1
  Fe  Fe1  1  0.25000000  0.25000000  0.24672320  1
  Cr  Cr2  1  0.00000000  0.00343490  0.49867131  1
  Cr  Cr3  1  0.25000000  0.25000000  0.75186264  1
  Cr  Cr4  1  0.00000000  0.49669724  0.00080267  1
  Cr  Cr5  1  0.25000000  0.75000000  0.24978829  1
  Cr  Cr6  1  0.00000000  0.49633448  0.49865662  1
  Cr  Cr7  1  0.25000000  0.75000000  0.75063588  1
  Cr  Cr8  1  0.50000000  0.00330276  0.00080267  1
  Fe  Fe9  1  0.75000000  0.25000000  0.24672320  1
  Cr  Cr10  1  0.50000000  0.00366552  0.49865662  1
  Cr  Cr11  1  0.75000000  0.25000000  0.75186264  1
  Fe  Fe12  1  0.50000000  0.49998489  0.00285939  1
  Cr  Cr13  1  0.75000000  0.75000000  0.24978829  1
  Cr  Cr14  1  0.50000000  0.49656510  0.49867131  1
  Cr  Cr15  1  0.75000000  0.75000000  0.75063588  1
" 