296,FeCr80_10,-61.7941364470912, 206.570668074499,FeCr80,"# generated using pymatgen
 data_Cr3Fe
_symmetry_space_group_name_H-M   'P 1'
_cell_length_a   4.97803174
_cell_length_b   4.97803174
_cell_length_c   7.04000000
_cell_angle_alpha   90.00000000
_cell_angle_beta   90.00000000
_cell_angle_gamma   90.00000000
_symmetry_Int_Tables_number   1
_chemical_formula_structural   Cr3Fe
_chemical_formula_sum   'Cr12 Fe4'
_cell_volume   174.45683200
_cell_formula_units_Z   4
loop_
 _symmetry_equiv_pos_site_id
 _symmetry_equiv_pos_as_xyz
  1  'x, y, z'
loop_
 _atom_site_type_symbol
 _atom_site_label
 _atom_site_symmetry_multiplicity
 _atom_site_fract_x
 _atom_site_fract_y
 _atom_site_fract_z
 _atom_site_occupancy
  Cr  Cr0  1  0.99789453  0.00451655  0.00062275  1
  Fe  Fe1  1  0.25122783  0.24945335  0.24840429  1
  Cr  Cr2  1  0.99855376  0.00508981  0.49921049  1
  Cr  Cr3  1  0.25247515  0.24769285  0.75092114  1
  Cr  Cr4  1  0.99919773  0.49749694  0.00028611  1
  Cr  Cr5  1  0.25099880  0.75126495  0.25019775  1
  Cr  Cr6  1  0.99864328  0.49583235  0.49961756  1
  Cr  Cr7  1  0.25097836  0.75091836  0.74995473  1
  Fe  Fe8  1  0.49989921  0.00029353  0.00190380  1
  Fe  Fe9  1  0.74845322  0.24939668  0.24816821  1
  Cr  Cr10  1  0.50167655  0.00486148  0.49910117  1
  Fe  Fe11  1  0.74985035  0.24953566  0.75165482  1
  Cr  Cr12  1  0.50159945  0.49433521  0.00033414  1
  Cr  Cr13  1  0.74869230  0.75127160  0.24982947  1
  Cr  Cr14  1  0.50170093  0.49570771  0.49950135  1
  Cr  Cr15  1  0.74815855  0.75233295  0.75029223  1
" 