60,FeCr50_3,-64.0255557061539, 181.182197323572,FeCr50,"# generated using pymatgen
 data_CrFe
_symmetry_space_group_name_H-M   'P 1'
_cell_length_a   4.97803174
_cell_length_b   4.97803174
_cell_length_c   7.04000000
_cell_angle_alpha   90.00000000
_cell_angle_beta   90.00000000
_cell_angle_gamma   90.00000000
_symmetry_Int_Tables_number   1
_chemical_formula_structural   CrFe
_chemical_formula_sum   'Cr8 Fe8'
_cell_volume   174.45683200
_cell_formula_units_Z   8
loop_
 _symmetry_equiv_pos_site_id
 _symmetry_equiv_pos_as_xyz
  1  'x, y, z'
loop_
 _atom_site_type_symbol
 _atom_site_label
 _atom_site_symmetry_multiplicity
 _atom_site_fract_x
 _atom_site_fract_y
 _atom_site_fract_z
 _atom_site_occupancy
  Cr  Cr0  1  0.00000000  0.00659092  0.00000000  1
  Fe  Fe1  1  0.25031031  0.25162437  0.24936852  1
  Fe  Fe2  1  0.00000000  0.99729078  0.50000000  1
  Fe  Fe3  1  0.25031031  0.25162437  0.75063148  1
  Fe  Fe4  1  0.00000000  0.49830822  0.00000000  1
  Cr  Cr5  1  0.25005078  0.74707127  0.25016814  1
  Cr  Cr6  1  0.00000000  0.48803240  0.50000000  1
  Cr  Cr7  1  0.25005078  0.74707127  0.74983186  1
  Cr  Cr8  1  0.50000000  0.00673605  0.00000000  1
  Fe  Fe9  1  0.74968969  0.25162437  0.24936852  1
  Cr  Cr10  1  0.50000000  0.00957277  0.50000000  1
  Fe  Fe11  1  0.74968969  0.25162437  0.75063148  1
  Fe  Fe12  1  0.50000000  0.49850255  0.00000000  1
  Cr  Cr13  1  0.74994922  0.74707127  0.25016814  1
  Fe  Fe14  1  0.50000000  0.50018378  0.50000000  1
  Cr  Cr15  1  0.74994922  0.74707127  0.74983186  1
" 