403,FeCr50_5,-63.9925481638383, 177.303169533335,FeCr50,"# generated using pymatgen
 data_CrFe
_symmetry_space_group_name_H-M   'P 1'
_cell_length_a   4.97803174
_cell_length_b   4.97803174
_cell_length_c   7.04000000
_cell_angle_alpha   90.00000000
_cell_angle_beta   90.00000000
_cell_angle_gamma   90.00000000
_symmetry_Int_Tables_number   1
_chemical_formula_structural   CrFe
_chemical_formula_sum   'Cr8 Fe8'
_cell_volume   174.45683200
_cell_formula_units_Z   8
loop_
 _symmetry_equiv_pos_site_id
 _symmetry_equiv_pos_as_xyz
  1  'x, y, z'
loop_
 _atom_site_type_symbol
 _atom_site_label
 _atom_site_symmetry_multiplicity
 _atom_site_fract_x
 _atom_site_fract_y
 _atom_site_fract_z
 _atom_site_occupancy
  Fe  Fe0  1  0.99874917  0.99874917  0.99573882  1
  Fe  Fe1  1  0.25059049  0.25059049  0.25295987  1
  Fe  Fe2  1  0.99954754  0.99954754  0.50403634  1
  Cr  Cr3  1  0.24655663  0.24655663  0.74927235  1
  Cr  Cr4  1  0.00012269  0.49942266  0.99866301  1
  Cr  Cr5  1  0.24567378  0.75631390  0.25134954  1
  Fe  Fe6  1  0.99971720  0.50043577  0.50300024  1
  Fe  Fe7  1  0.24836617  0.74966685  0.74705152  1
  Cr  Cr8  1  0.49942266  0.00012269  0.99866301  1
  Cr  Cr9  1  0.75631390  0.24567378  0.25134954  1
  Fe  Fe10  1  0.50043577  0.99971720  0.50300024  1
  Fe  Fe11  1  0.74966685  0.24836617  0.74705152  1
  Cr  Cr12  1  0.50042631  0.50042631  0.99960451  1
  Cr  Cr13  1  0.75241083  0.75241083  0.25143887  1
  Cr  Cr14  1  0.49997300  0.49997300  0.49973714  1
  Fe  Fe15  1  0.75202700  0.75202700  0.74708347  1
" 