3,FeCr70_5,-62.3188817532821, 204.435340090783,FeCr70,"# generated using pymatgen
 data_Cr11Fe5
_symmetry_space_group_name_H-M   'P 1'
_cell_length_a   4.97803174
_cell_length_b   4.97803174
_cell_length_c   7.04000000
_cell_angle_alpha   90.00000000
_cell_angle_beta   90.00000000
_cell_angle_gamma   90.00000000
_symmetry_Int_Tables_number   1
_chemical_formula_structural   Cr11Fe5
_chemical_formula_sum   'Cr11 Fe5'
_cell_volume   174.45683200
_cell_formula_units_Z   1
loop_
 _symmetry_equiv_pos_site_id
 _symmetry_equiv_pos_as_xyz
  1  'x, y, z'
loop_
 _atom_site_type_symbol
 _atom_site_label
 _atom_site_symmetry_multiplicity
 _atom_site_fract_x
 _atom_site_fract_y
 _atom_site_fract_z
 _atom_site_occupancy
  Fe  Fe0  1  0.00000000  0.99913526  0.00000000  1
  Cr  Cr1  1  0.24753444  0.25186965  0.24925816  1
  Cr  Cr2  1  0.00000000  0.00502312  0.50000000  1
  Fe  Fe3  1  0.25029786  0.25002427  0.75161266  1
  Cr  Cr4  1  0.00000000  0.49524735  0.00000000  1
  Cr  Cr5  1  0.24893241  0.74922197  0.24974638  1
  Fe  Fe6  1  0.00000000  0.49991441  0.50000000  1
  Cr  Cr7  1  0.24844036  0.74786038  0.75020110  1
  Cr  Cr8  1  0.50000000  0.00408068  0.00000000  1
  Fe  Fe9  1  0.74970214  0.25002427  0.24838734  1
  Cr  Cr10  1  0.50000000  0.00218350  0.50000000  1
  Cr  Cr11  1  0.75246556  0.25186965  0.75074184  1
  Fe  Fe12  1  0.50000000  0.50027826  0.00000000  1
  Cr  Cr13  1  0.75155964  0.74786038  0.24979890  1
  Cr  Cr14  1  0.50000000  0.49618488  0.50000000  1
  Cr  Cr15  1  0.75106759  0.74922197  0.75025362  1
" 