267,FeCr60_12,-63.6205709850101, 185.875229477775,FeCr60,"# generated using pymatgen
 data_Cr9Fe7
_symmetry_space_group_name_H-M   'P 1'
_cell_length_a   4.97803174
_cell_length_b   4.97803174
_cell_length_c   7.04000000
_cell_angle_alpha   90.00000000
_cell_angle_beta   90.00000000
_cell_angle_gamma   90.00000000
_symmetry_Int_Tables_number   1
_chemical_formula_structural   Cr9Fe7
_chemical_formula_sum   'Cr9 Fe7'
_cell_volume   174.45683200
_cell_formula_units_Z   1
loop_
 _symmetry_equiv_pos_site_id
 _symmetry_equiv_pos_as_xyz
  1  'x, y, z'
loop_
 _atom_site_type_symbol
 _atom_site_label
 _atom_site_symmetry_multiplicity
 _atom_site_fract_x
 _atom_site_fract_y
 _atom_site_fract_z
 _atom_site_occupancy
  Cr  Cr0  1  0.00742178  0.00560553  0.00000000  1
  Fe  Fe1  1  0.24925758  0.25074242  0.25701096  1
  Fe  Fe2  1  0.00092804  0.00162394  0.50000000  1
  Fe  Fe3  1  0.24925758  0.25074242  0.74298904  1
  Cr  Cr4  1  0.00225340  0.49774660  0.00000000  1
  Cr  Cr5  1  0.25222288  0.75267530  0.25152125  1
  Fe  Fe6  1  0.00076060  0.49923940  0.50000000  1
  Cr  Cr7  1  0.25222288  0.75267530  0.74847875  1
  Fe  Fe8  1  0.50086360  0.99913640  0.00000000  1
  Cr  Cr9  1  0.74732470  0.24777712  0.25152125  1
  Fe  Fe10  1  0.49815444  0.00184556  0.50000000  1
  Cr  Cr11  1  0.74732470  0.24777712  0.74847875  1
  Cr  Cr12  1  0.49439447  0.49257822  0.00000000  1
  Cr  Cr13  1  0.74961864  0.75038136  0.25004995  1
  Fe  Fe14  1  0.49837606  0.49907196  0.50000000  1
  Cr  Cr15  1  0.74961864  0.75038136  0.74995005  1
" 