86,FeCr80_4,-61.7137266776991, 207.904858138378,FeCr80,"# generated using pymatgen
 data_Cr3Fe
_symmetry_space_group_name_H-M   'P 1'
_cell_length_a   4.97803174
_cell_length_b   4.97803174
_cell_length_c   7.04000000
_cell_angle_alpha   90.00000000
_cell_angle_beta   90.00000000
_cell_angle_gamma   90.00000000
_symmetry_Int_Tables_number   1
_chemical_formula_structural   Cr3Fe
_chemical_formula_sum   'Cr12 Fe4'
_cell_volume   174.45683200
_cell_formula_units_Z   4
loop_
 _symmetry_equiv_pos_site_id
 _symmetry_equiv_pos_as_xyz
  1  'x, y, z'
loop_
 _atom_site_type_symbol
 _atom_site_label
 _atom_site_symmetry_multiplicity
 _atom_site_fract_x
 _atom_site_fract_y
 _atom_site_fract_z
 _atom_site_occupancy
  Fe  Fe0  1  0.99969653  0.00005610  0.00125362  1
  Cr  Cr1  1  0.25153593  0.24793461  0.24955675  1
  Cr  Cr2  1  0.00249163  0.99805321  0.49940077  1
  Cr  Cr3  1  0.25168913  0.24859144  0.75058393  1
  Cr  Cr4  1  0.00197685  0.50197685  0.00011099  1
  Fe  Fe5  1  0.24982896  0.74982896  0.24826848  1
  Cr  Cr6  1  0.00114526  0.50114526  0.49971229  1
  Cr  Cr7  1  0.25163505  0.75163505  0.75086498  1
  Cr  Cr8  1  0.49769504  0.99769504  0.00077714  1
  Cr  Cr9  1  0.74921310  0.24921310  0.24981568  1
  Fe  Fe10  1  0.49979929  0.99979929  0.49858792  1
  Cr  Cr11  1  0.74865786  0.24865786  0.75027237  1
  Fe  Fe12  1  0.50005610  0.49969653  0.00125362  1
  Cr  Cr13  1  0.74793461  0.75153593  0.24955675  1
  Cr  Cr14  1  0.49805321  0.50249163  0.49940077  1
  Cr  Cr15  1  0.74859144  0.75168913  0.75058393  1
" 