140,FeCr60_1,-63.2539225676262, 187.862137340556,FeCr60,"# generated using pymatgen
 data_Cr9Fe7
_symmetry_space_group_name_H-M   'P 1'
_cell_length_a   4.97803174
_cell_length_b   4.97803174
_cell_length_c   7.04000000
_cell_angle_alpha   90.00000000
_cell_angle_beta   90.00000000
_cell_angle_gamma   90.00000000
_symmetry_Int_Tables_number   1
_chemical_formula_structural   Cr9Fe7
_chemical_formula_sum   'Cr9 Fe7'
_cell_volume   174.45683200
_cell_formula_units_Z   1
loop_
 _symmetry_equiv_pos_site_id
 _symmetry_equiv_pos_as_xyz
  1  'x, y, z'
loop_
 _atom_site_type_symbol
 _atom_site_label
 _atom_site_symmetry_multiplicity
 _atom_site_fract_x
 _atom_site_fract_y
 _atom_site_fract_z
 _atom_site_occupancy
  Cr  Cr0  1  0.00261244  0.99987083  0.99983942  1
  Fe  Fe1  1  0.25026653  0.25038549  0.24826258  1
  Fe  Fe2  1  0.99961388  0.99998533  0.50004712  1
  Fe  Fe3  1  0.24994112  0.25184364  0.75186248  1
  Fe  Fe4  1  0.00296753  0.49965742  0.99963395  1
  Cr  Cr5  1  0.24681793  0.74789309  0.24929706  1
  Cr  Cr6  1  0.00405788  0.49985925  0.50008747  1
  Fe  Fe7  1  0.24988453  0.74808601  0.75181025  1
  Cr  Cr8  1  0.49795462  0.99991875  0.99992103  1
  Cr  Cr9  1  0.75247686  0.25239941  0.24955580  1
  Cr  Cr10  1  0.49458952  0.00021396  0.50019855  1
  Cr  Cr11  1  0.75189273  0.25133752  0.75039389  1
  Fe  Fe12  1  0.49796531  0.49983016  0.99995991  1
  Fe  Fe13  1  0.74907069  0.75007872  0.24885787  1
  Cr  Cr14  1  0.49806341  0.50006489  0.49989805  1
  Cr  Cr15  1  0.75182502  0.74857551  0.75037458  1
" 