152,FeCr30_7,-65.2766959456118, 150.636425393827,FeCr30,"# generated using pymatgen
 data_CrFe3
_symmetry_space_group_name_H-M   'P 1'
_cell_length_a   4.97803174
_cell_length_b   4.97803174
_cell_length_c   7.04000000
_cell_angle_alpha   90.00000000
_cell_angle_beta   90.00000000
_cell_angle_gamma   90.00000000
_symmetry_Int_Tables_number   1
_chemical_formula_structural   CrFe3
_chemical_formula_sum   'Cr4 Fe12'
_cell_volume   174.45683200
_cell_formula_units_Z   4
loop_
 _symmetry_equiv_pos_site_id
 _symmetry_equiv_pos_as_xyz
  1  'x, y, z'
loop_
 _atom_site_type_symbol
 _atom_site_label
 _atom_site_symmetry_multiplicity
 _atom_site_fract_x
 _atom_site_fract_y
 _atom_site_fract_z
 _atom_site_occupancy
  Fe  Fe0  1  0.99997841  0.00113141  0.99843761  1
  Fe  Fe1  1  0.25061132  0.24938868  0.25244180  1
  Fe  Fe2  1  0.00135589  0.00113142  0.50155792  1
  Fe  Fe3  1  0.24858564  0.25141436  0.74801943  1
  Fe  Fe4  1  0.00247986  0.49752014  0.99777690  1
  Cr  Cr5  1  0.24632324  0.74693078  0.25051530  1
  Fe  Fe6  1  0.00156773  0.49843227  0.50202599  1
  Fe  Fe7  1  0.25036071  0.74936027  0.74817506  1
  Cr  Cr8  1  0.49743702  0.00256298  0.99958630  1
  Cr  Cr9  1  0.75306922  0.25367676  0.25051530  1
  Fe  Fe10  1  0.49908868  0.00091132  0.50112489  1
  Fe  Fe11  1  0.75063973  0.24963929  0.74817506  1
  Fe  Fe12  1  0.49886859  0.50002159  0.99843761  1
  Fe  Fe13  1  0.74874992  0.75125008  0.25187854  1
  Fe  Fe14  1  0.49886858  0.49864411  0.50155792  1
  Cr  Cr15  1  0.75201546  0.74798454  0.74977439  1
" 