2,FeCr80_7,-61.7616655280697, 207.957657476667,FeCr80,"# generated using pymatgen
 data_Cr3Fe
_symmetry_space_group_name_H-M   'P 1'
_cell_length_a   4.97803174
_cell_length_b   4.97803174
_cell_length_c   7.04000000
_cell_angle_alpha   90.00000000
_cell_angle_beta   90.00000000
_cell_angle_gamma   90.00000000
_symmetry_Int_Tables_number   1
_chemical_formula_structural   Cr3Fe
_chemical_formula_sum   'Cr12 Fe4'
_cell_volume   174.45683200
_cell_formula_units_Z   4
loop_
 _symmetry_equiv_pos_site_id
 _symmetry_equiv_pos_as_xyz
  1  'x, y, z'
loop_
 _atom_site_type_symbol
 _atom_site_label
 _atom_site_symmetry_multiplicity
 _atom_site_fract_x
 _atom_site_fract_y
 _atom_site_fract_z
 _atom_site_occupancy
  Cr  Cr0  1  0.99568714  0.99676312  0.00000000  1
  Cr  Cr1  1  0.25141393  0.25000000  0.25000000  1
  Cr  Cr2  1  0.99851842  0.99795224  0.50000000  1
  Cr  Cr3  1  0.25141393  0.25000000  0.75000000  1
  Cr  Cr4  1  0.99851842  0.50204776  0.00000000  1
  Cr  Cr5  1  0.25435608  0.75000000  0.25000000  1
  Cr  Cr6  1  0.99568714  0.50323688  0.50000000  1
  Cr  Cr7  1  0.25435608  0.75000000  0.75000000  1
  Fe  Fe8  1  0.50014814  0.00028548  0.00000000  1
  Cr  Cr9  1  0.74609872  0.25000000  0.25000000  1
  Cr  Cr10  1  0.50395936  0.99504274  0.50000000  1
  Cr  Cr11  1  0.74609872  0.25000000  0.75000000  1
  Cr  Cr12  1  0.50395936  0.50495726  0.00000000  1
  Fe  Fe13  1  0.74981821  0.75000000  0.25000000  1
  Fe  Fe14  1  0.50014814  0.49971452  0.50000000  1
  Fe  Fe15  1  0.74981821  0.75000000  0.75000000  1
" 