313,FeCr40_7,-64.8486434754069, 159.708776399609,FeCr40,"# generated using pymatgen
 data_Cr3Fe5
_symmetry_space_group_name_H-M   'P 1'
_cell_length_a   4.97803174
_cell_length_b   4.97803174
_cell_length_c   7.04000000
_cell_angle_alpha   90.00000000
_cell_angle_beta   90.00000000
_cell_angle_gamma   90.00000000
_symmetry_Int_Tables_number   1
_chemical_formula_structural   Cr3Fe5
_chemical_formula_sum   'Cr6 Fe10'
_cell_volume   174.45683200
_cell_formula_units_Z   2
loop_
 _symmetry_equiv_pos_site_id
 _symmetry_equiv_pos_as_xyz
  1  'x, y, z'
loop_
 _atom_site_type_symbol
 _atom_site_label
 _atom_site_symmetry_multiplicity
 _atom_site_fract_x
 _atom_site_fract_y
 _atom_site_fract_z
 _atom_site_occupancy
  Cr  Cr0  1  0.99526033  0.00175262  0.00025447  1
  Fe  Fe1  1  0.24937417  0.24928680  0.25138854  1
  Fe  Fe2  1  0.00071320  0.00062583  0.49861146  1
  Cr  Cr3  1  0.24824738  0.25473967  0.74974553  1
  Fe  Fe4  1  0.99466505  0.49936554  0.00173885  1
  Cr  Cr5  1  0.24847413  0.74394978  0.24984807  1
  Fe  Fe6  1  0.99526507  0.49824366  0.49828346  1
  Cr  Cr7  1  0.24808157  0.74598711  0.74989083  1
  Cr  Cr8  1  0.50401289  0.00191843  0.00010917  1
  Fe  Fe9  1  0.75175634  0.25473493  0.25171654  1
  Cr  Cr10  1  0.50605022  0.00152587  0.50015193  1
  Fe  Fe11  1  0.75063446  0.25533495  0.74826115  1
  Fe  Fe12  1  0.50411087  0.49951510  0.00164140  1
  Fe  Fe13  1  0.75034814  0.74747873  0.25163120  1
  Fe  Fe14  1  0.50252127  0.49965186  0.49836880  1
  Fe  Fe15  1  0.75048490  0.74588913  0.74835860  1
" 