310,FeCr40_2,-64.630744810817, 158.200114385827,FeCr40,"# generated using pymatgen
 data_Cr3Fe5
_symmetry_space_group_name_H-M   'P 1'
_cell_length_a   4.97803174
_cell_length_b   4.97803174
_cell_length_c   7.04000000
_cell_angle_alpha   90.00000000
_cell_angle_beta   90.00000000
_cell_angle_gamma   90.00000000
_symmetry_Int_Tables_number   1
_chemical_formula_structural   Cr3Fe5
_chemical_formula_sum   'Cr6 Fe10'
_cell_volume   174.45683200
_cell_formula_units_Z   2
loop_
 _symmetry_equiv_pos_site_id
 _symmetry_equiv_pos_as_xyz
  1  'x, y, z'
loop_
 _atom_site_type_symbol
 _atom_site_label
 _atom_site_symmetry_multiplicity
 _atom_site_fract_x
 _atom_site_fract_y
 _atom_site_fract_z
 _atom_site_occupancy
  Fe  Fe0  1  0.99986331  0.00213852  0.99797888  1
  Cr  Cr1  1  0.24369101  0.24839261  0.25068217  1
  Fe  Fe2  1  0.99821697  0.00193877  0.50177002  1
  Fe  Fe3  1  0.24663310  0.24862178  0.74845442  1
  Fe  Fe4  1  0.99994352  0.49825478  0.99815981  1
  Cr  Cr5  1  0.24338861  0.75135395  0.25036723  1
  Fe  Fe6  1  0.99992679  0.49890174  0.50177644  1
  Fe  Fe7  1  0.25107828  0.75103530  0.74846381  1
  Cr  Cr8  1  0.50193809  0.00162320  0.99937459  1
  Fe  Fe9  1  0.75073101  0.24806856  0.25187546  1
  Fe  Fe10  1  0.50016121  0.99992015  0.50147890  1
  Fe  Fe11  1  0.75367910  0.24989464  0.74837201  1
  Cr  Cr12  1  0.50201129  0.49857641  0.99973387  1
  Fe  Fe13  1  0.75027277  0.75152816  0.25167324  1
  Cr  Cr14  1  0.50171367  0.49803405  0.50018185  1
  Cr  Cr15  1  0.75675128  0.75171738  0.74965730  1
" 