69,Ni10Fe80Cr10_0,-225.991291820728, 157.022019656665,Ni10Fe80Cr10,"# generated using pymatgen
 data_Cr6Fe43Ni5
_symmetry_space_group_name_H-M   'P 1'
_cell_length_a   7.46704761
_cell_length_b   7.46704761
_cell_length_c   10.56000000
_cell_angle_alpha   90.00000000
_cell_angle_beta   90.00000000
_cell_angle_gamma   90.00000000
_symmetry_Int_Tables_number   1
_chemical_formula_structural   Cr6Fe43Ni5
_chemical_formula_sum   'Cr6 Fe43 Ni5'
_cell_volume   588.79180800
_cell_formula_units_Z   1
loop_
 _symmetry_equiv_pos_site_id
 _symmetry_equiv_pos_as_xyz
  1  'x, y, z'
loop_
 _atom_site_type_symbol
 _atom_site_label
 _atom_site_symmetry_multiplicity
 _atom_site_fract_x
 _atom_site_fract_y
 _atom_site_fract_z
 _atom_site_occupancy
  Ni  Ni0  1  0.99794572  0.00055361  0.99982407  1
  Fe  Fe1  1  0.16587218  0.16768489  0.16624165  1
  Fe  Fe2  1  0.00333887  0.00134906  0.33150148  1
  Fe  Fe3  1  0.99997231  0.33303794  0.99921741  1
  Fe  Fe4  1  0.16931845  0.50081093  0.16740910  1
  Fe  Fe5  1  0.00210297  0.33060079  0.33309035  1
  Fe  Fe6  1  0.00139105  0.66796527  0.99821778  1
  Fe  Fe7  1  0.16564425  0.83356445  0.16548987  1
  Fe  Fe8  1  0.00345694  0.66925360  0.33356169  1
  Fe  Fe9  1  0.33022242  0.99832265  0.00207348  1
  Fe  Fe10  1  0.49815883  0.16913778  0.16675866  1
  Fe  Fe11  1  0.33365010  0.00218144  0.33304026  1
  Fe  Fe12  1  0.33139338  0.33224572  0.00216994  1
  Fe  Fe13  1  0.49875840  0.50006854  0.16651967  1
  Ni  Ni14  1  0.33284863  0.33549931  0.33336025  1
  Fe  Fe15  1  0.33323707  0.66692138  0.99941957  1
  Fe  Fe16  1  0.49899770  0.83171087  0.16650924  1
  Fe  Fe17  1  0.33440360  0.66819495  0.33395433  1
  Fe  Fe18  1  0.66607632  0.99925482  0.00234653  1
  Fe  Fe19  1  0.83498733  0.16652680  0.16465436  1
  Cr  Cr20  1  0.66908473  0.00075897  0.33092741  1
  Fe  Fe21  1  0.66779292  0.33234193  0.99968048  1
  Cr  Cr22  1  0.83508977  0.50068503  0.16814308  1
  Fe  Fe23  1  0.66354430  0.33276148  0.33332149  1
  Fe  Fe24  1  0.66823310  0.66731270  0.99955968  1
  Fe  Fe25  1  0.83558954  0.83397286  0.16505922  1
  Fe  Fe26  1  0.66367921  0.66715057  0.33353467  1
  Fe  Fe27  1  0.16698836  0.16673894  0.49910769  1
  Fe  Fe28  1  0.99904000  0.00303745  0.66824046  1
  Fe  Fe29  1  0.16182171  0.16662227  0.83439999  1
  Fe  Fe30  1  0.17037314  0.49894935  0.49808978  1
  Fe  Fe31  1  0.00002218  0.33375456  0.66791209  1
  Fe  Fe32  1  0.16798636  0.49696445  0.83533363  1
  Fe  Fe33  1  0.16781707  0.83572944  0.49886983  1
  Cr  Cr34  1  0.00267219  0.66922205  0.66868458  1
  Fe  Fe35  1  0.16755466  0.83553843  0.83572106  1
  Ni  Ni36  1  0.49735914  0.16535987  0.49952650  1
  Fe  Fe37  1  0.33066943  0.99772581  0.66498345  1
  Cr  Cr38  1  0.49490126  0.16159305  0.83355401  1
  Fe  Fe39  1  0.50044033  0.49846900  0.49837348  1
  Fe  Fe40  1  0.33178818  0.32970646  0.66464602  1
  Fe  Fe41  1  0.50289772  0.49718305  0.83535057  1
  Ni  Ni42  1  0.49872442  0.83493494  0.50006103  1
  Cr  Cr43  1  0.33602912  0.66230343  0.66705399  1
  Fe  Fe44  1  0.50184574  0.82941414  0.83357099  1
  Fe  Fe45  1  0.83143326  0.16563886  0.50089253  1
  Fe  Fe46  1  0.66477204  0.99870247  0.66482683  1
  Fe  Fe47  1  0.83162590  0.16803610  0.83414772  1
  Cr  Cr48  1  0.83539941  0.50063719  0.49786133  1
  Fe  Fe49  1  0.66561449  0.33384477  0.66703064  1
  Ni  Ni50  1  0.83482920  0.50133178  0.83439395  1
  Fe  Fe51  1  0.83229175  0.83614636  0.49983373  1
  Fe  Fe52  1  0.66816689  0.66690537  0.66697298  1
  Fe  Fe53  1  0.83214596  0.83564208  0.83497543  1
" 