439,Ni10Fe80Cr10_10,-226.278986035774, 154.4911115896,Ni10Fe80Cr10,"# generated using pymatgen
 data_Cr6Fe43Ni5
_symmetry_space_group_name_H-M   'P 1'
_cell_length_a   7.46704761
_cell_length_b   7.46704761
_cell_length_c   10.56000000
_cell_angle_alpha   90.00000000
_cell_angle_beta   90.00000000
_cell_angle_gamma   90.00000000
_symmetry_Int_Tables_number   1
_chemical_formula_structural   Cr6Fe43Ni5
_chemical_formula_sum   'Cr6 Fe43 Ni5'
_cell_volume   588.79180800
_cell_formula_units_Z   1
loop_
 _symmetry_equiv_pos_site_id
 _symmetry_equiv_pos_as_xyz
  1  'x, y, z'
loop_
 _atom_site_type_symbol
 _atom_site_label
 _atom_site_symmetry_multiplicity
 _atom_site_fract_x
 _atom_site_fract_y
 _atom_site_fract_z
 _atom_site_occupancy
  Fe  Fe0  1  0.99878124  0.00360986  0.99945221  1
  Fe  Fe1  1  0.16754856  0.16754589  0.16600105  1
  Cr  Cr2  1  0.00126855  0.00034524  0.33511556  1
  Fe  Fe3  1  0.99945930  0.33309033  0.99927329  1
  Fe  Fe4  1  0.16513109  0.50057851  0.16597846  1
  Fe  Fe5  1  0.99998899  0.33675032  0.33356609  1
  Fe  Fe6  1  0.99867012  0.66281816  0.99910893  1
  Fe  Fe7  1  0.16730059  0.83359170  0.16391526  1
  Ni  Ni8  1  0.00013775  0.66640037  0.33318770  1
  Fe  Fe9  1  0.33498216  0.00247255  0.99959176  1
  Fe  Fe10  1  0.50157290  0.16623350  0.16652349  1
  Fe  Fe11  1  0.33501823  0.00150538  0.33448219  1
  Fe  Fe12  1  0.33446334  0.33344797  0.99984413  1
  Fe  Fe13  1  0.50043653  0.49786525  0.16500940  1
  Fe  Fe14  1  0.33240234  0.33384128  0.33373056  1
  Fe  Fe15  1  0.33484772  0.66442486  0.99955240  1
  Fe  Fe16  1  0.49870452  0.83444711  0.16463608  1
  Cr  Cr17  1  0.33203490  0.66875714  0.33380178  1
  Fe  Fe18  1  0.66569685  0.00153580  0.99787128  1
  Fe  Fe19  1  0.83279145  0.16822278  0.16569564  1
  Fe  Fe20  1  0.66683705  0.99797454  0.33499153  1
  Ni  Ni21  1  0.66710843  0.33264694  0.00009384  1
  Fe  Fe22  1  0.83433968  0.49712368  0.16541648  1
  Fe  Fe23  1  0.66827356  0.33085469  0.33248549  1
  Fe  Fe24  1  0.66523757  0.66381728  0.99876803  1
  Cr  Cr25  1  0.83332290  0.83234841  0.16372832  1
  Cr  Cr26  1  0.66790032  0.66339788  0.33382170  1
  Fe  Fe27  1  0.16572295  0.16933363  0.50043713  1
  Fe  Fe28  1  0.99837796  0.99894447  0.66601111  1
  Fe  Fe29  1  0.16638179  0.16906334  0.83366640  1
  Fe  Fe30  1  0.16454654  0.50228530  0.50155969  1
  Fe  Fe31  1  0.00126932  0.33422336  0.66738262  1
  Fe  Fe32  1  0.16673970  0.49940480  0.83214032  1
  Fe  Fe33  1  0.16431238  0.83107554  0.50228328  1
  Ni  Ni34  1  0.99889780  0.66554243  0.66661366  1
  Cr  Cr35  1  0.16432587  0.83283084  0.83437907  1
  Fe  Fe36  1  0.50282780  0.16745200  0.49951390  1
  Cr  Cr37  1  0.33325408  0.00140447  0.66523938  1
  Fe  Fe38  1  0.50081802  0.16823885  0.83372100  1
  Fe  Fe39  1  0.50039242  0.49930627  0.50220833  1
  Fe  Fe40  1  0.33262040  0.33691795  0.66641821  1
  Fe  Fe41  1  0.49960364  0.49994231  0.83330207  1
  Fe  Fe42  1  0.50184178  0.83289646  0.50168863  1
  Ni  Ni43  1  0.33310044  0.66623682  0.66691016  1
  Fe  Fe44  1  0.50023713  0.83222310  0.83331196  1
  Fe  Fe45  1  0.83234831  0.16680064  0.50199203  1
  Fe  Fe46  1  0.66821290  0.99795413  0.66711751  1
  Fe  Fe47  1  0.83328178  0.16690320  0.83327342  1
  Fe  Fe48  1  0.83516985  0.50010188  0.50140774  1
  Fe  Fe49  1  0.66646592  0.33476124  0.66846476  1
  Fe  Fe50  1  0.83339345  0.49959274  0.83340091  1
  Ni  Ni51  1  0.83408488  0.83221918  0.50275018  1
  Fe  Fe52  1  0.66619544  0.66657844  0.66660103  1
  Fe  Fe53  1  0.83132080  0.83211919  0.83256285  1
" 