383,Ni10Fe80Cr10_6,-226.096427073241, 156.548927749895,Ni10Fe80Cr10,"# generated using pymatgen
 data_Cr6Fe43Ni5
_symmetry_space_group_name_H-M   'P 1'
_cell_length_a   7.46704761
_cell_length_b   7.46704761
_cell_length_c   10.56000000
_cell_angle_alpha   90.00000000
_cell_angle_beta   90.00000000
_cell_angle_gamma   90.00000000
_symmetry_Int_Tables_number   1
_chemical_formula_structural   Cr6Fe43Ni5
_chemical_formula_sum   'Cr6 Fe43 Ni5'
_cell_volume   588.79180800
_cell_formula_units_Z   1
loop_
 _symmetry_equiv_pos_site_id
 _symmetry_equiv_pos_as_xyz
  1  'x, y, z'
loop_
 _atom_site_type_symbol
 _atom_site_label
 _atom_site_symmetry_multiplicity
 _atom_site_fract_x
 _atom_site_fract_y
 _atom_site_fract_z
 _atom_site_occupancy
  Fe  Fe0  1  0.99933951  0.00077553  0.00093045  1
  Fe  Fe1  1  0.16563344  0.16761290  0.16899889  1
  Fe  Fe2  1  0.99874193  0.99857793  0.33491023  1
  Fe  Fe3  1  0.99847806  0.33207729  0.99827327  1
  Fe  Fe4  1  0.16896582  0.50096988  0.16853187  1
  Fe  Fe5  1  0.00031062  0.33316979  0.33610314  1
  Fe  Fe6  1  0.00040187  0.66635094  0.99981569  1
  Fe  Fe7  1  0.16418700  0.83239978  0.16743591  1
  Fe  Fe8  1  0.99964543  0.66753564  0.33569639  1
  Fe  Fe9  1  0.33191058  0.00052022  0.99945379  1
  Cr  Cr10  1  0.50171982  0.16824990  0.16902352  1
  Fe  Fe11  1  0.33274733  0.99944730  0.33624573  1
  Cr  Cr12  1  0.33191306  0.33494882  0.99912018  1
  Ni  Ni13  1  0.50049964  0.50093996  0.16728740  1
  Fe  Fe14  1  0.33558555  0.33579277  0.33516585  1
  Fe  Fe15  1  0.33317566  0.66727283  0.99969545  1
  Cr  Cr16  1  0.49748656  0.83361363  0.16691934  1
  Fe  Fe17  1  0.33469743  0.66511733  0.33500697  1
  Fe  Fe18  1  0.66704601  0.00052778  0.99762048  1
  Fe  Fe19  1  0.83414673  0.16479197  0.16771482  1
  Fe  Fe20  1  0.66706577  0.99941325  0.33678098  1
  Fe  Fe21  1  0.66698205  0.33336598  0.99839846  1
  Cr  Cr22  1  0.83344282  0.49821708  0.16781916  1
  Fe  Fe23  1  0.66584067  0.33497639  0.33602131  1
  Fe  Fe24  1  0.66565556  0.66563241  0.00023576  1
  Fe  Fe25  1  0.83157039  0.83330993  0.16785854  1
  Ni  Ni26  1  0.66570833  0.66706497  0.33436762  1
  Fe  Fe27  1  0.16951275  0.16734207  0.49896101  1
  Fe  Fe28  1  0.99731443  0.99989923  0.66391561  1
  Fe  Fe29  1  0.16664029  0.16693867  0.83237521  1
  Fe  Fe30  1  0.17029188  0.50035747  0.49984889  1
  Cr  Cr31  1  0.00286139  0.33441770  0.66629528  1
  Fe  Fe32  1  0.16705655  0.50169048  0.83204837  1
  Fe  Fe33  1  0.16845253  0.83325083  0.50092486  1
  Fe  Fe34  1  0.99792216  0.66877769  0.66424288  1
  Cr  Cr35  1  0.16599528  0.83486973  0.83106870  1
  Ni  Ni36  1  0.50041848  0.16685135  0.50074847  1
  Fe  Fe37  1  0.33453485  0.00163942  0.66441551  1
  Fe  Fe38  1  0.50035598  0.16456803  0.83081713  1
  Ni  Ni39  1  0.50168659  0.49880174  0.50014578  1
  Fe  Fe40  1  0.33792239  0.33294837  0.66607707  1
  Fe  Fe41  1  0.50111715  0.50136122  0.83191320  1
  Fe  Fe42  1  0.50042146  0.83270015  0.49990471  1
  Fe  Fe43  1  0.33565262  0.66602871  0.66496120  1
  Fe  Fe44  1  0.50132191  0.83316348  0.83253653  1
  Fe  Fe45  1  0.83052844  0.16652768  0.50051601  1
  Ni  Ni46  1  0.66528538  0.99740240  0.66593369  1
  Fe  Fe47  1  0.83275002  0.16416300  0.83194022  1
  Fe  Fe48  1  0.83147470  0.49992536  0.49876227  1
  Fe  Fe49  1  0.66631639  0.33129114  0.66589723  1
  Fe  Fe50  1  0.83336250  0.50122618  0.83351528  1
  Fe  Fe51  1  0.83013107  0.83287608  0.49991905  1
  Fe  Fe52  1  0.66681614  0.66540065  0.66470611  1
  Fe  Fe53  1  0.83095901  0.83290896  0.83217848  1
" 