138,Ni10Fe10Cr80_3,-236.845481075574, 179.477381920072,Ni10Fe10Cr80,"# generated using pymatgen
 data_Cr6Fe5Ni43
_symmetry_space_group_name_H-M   'P 1'
_cell_length_a   7.46704761
_cell_length_b   7.46704761
_cell_length_c   10.56000000
_cell_angle_alpha   90.00000000
_cell_angle_beta   90.00000000
_cell_angle_gamma   90.00000000
_symmetry_Int_Tables_number   1
_chemical_formula_structural   Cr6Fe5Ni43
_chemical_formula_sum   'Cr6 Fe5 Ni43'
_cell_volume   588.79180800
_cell_formula_units_Z   1
loop_
 _symmetry_equiv_pos_site_id
 _symmetry_equiv_pos_as_xyz
  1  'x, y, z'
loop_
 _atom_site_type_symbol
 _atom_site_label
 _atom_site_symmetry_multiplicity
 _atom_site_fract_x
 _atom_site_fract_y
 _atom_site_fract_z
 _atom_site_occupancy
  Ni  Ni0  1  0.99950279  0.99880662  0.99895756  1
  Cr  Cr1  1  0.16796617  0.16586757  0.16702097  1
  Ni  Ni2  1  0.99958816  0.99969656  0.33441143  1
  Ni  Ni3  1  0.99951187  0.33372704  0.00029792  1
  Fe  Fe4  1  0.16519844  0.50104546  0.16703757  1
  Ni  Ni5  1  0.99929212  0.33391850  0.33405261  1
  Ni  Ni6  1  0.00068589  0.66779544  0.00196465  1
  Ni  Ni7  1  0.16536482  0.83361822  0.16738325  1
  Fe  Fe8  1  0.99953516  0.66760537  0.33381932  1
  Ni  Ni9  1  0.33267282  0.99876173  0.00175170  1
  Ni  Ni10  1  0.50034902  0.16611990  0.16822610  1
  Ni  Ni11  1  0.33344066  0.99859606  0.33426534  1
  Ni  Ni12  1  0.33238243  0.33398835  0.99880632  1
  Cr  Cr13  1  0.50076944  0.49866671  0.16552999  1
  Ni  Ni14  1  0.33321815  0.33394337  0.33577472  1
  Ni  Ni15  1  0.33109384  0.66692323  0.00024270  1
  Fe  Fe16  1  0.50019697  0.83410496  0.16778356  1
  Ni  Ni17  1  0.33254200  0.66726612  0.33354350  1
  Ni  Ni18  1  0.66885369  0.99976827  0.00332362  1
  Fe  Fe19  1  0.83293563  0.16644067  0.16750445  1
  Ni  Ni20  1  0.66759342  0.99932201  0.33308201  1
  Ni  Ni21  1  0.66760580  0.33241190  0.00148166  1
  Ni  Ni22  1  0.83321729  0.50122894  0.16783438  1
  Ni  Ni23  1  0.66778344  0.33312971  0.33420998  1
  Ni  Ni24  1  0.66755942  0.66756526  0.00069251  1
  Ni  Ni25  1  0.83432624  0.83206242  0.16723905  1
  Ni  Ni26  1  0.66644612  0.66698200  0.33466272  1
  Ni  Ni27  1  0.16643268  0.16657337  0.50011998  1
  Ni  Ni28  1  0.99990915  0.00020566  0.66696684  1
  Ni  Ni29  1  0.16517074  0.16627437  0.83311822  1
  Ni  Ni30  1  0.16687768  0.49948169  0.49819757  1
  Ni  Ni31  1  0.00227356  0.33257692  0.66575306  1
  Ni  Ni32  1  0.16734442  0.49990087  0.83457308  1
  Ni  Ni33  1  0.16685710  0.83443872  0.49931967  1
  Ni  Ni34  1  0.00162443  0.66785100  0.66443668  1
  Ni  Ni35  1  0.16533983  0.83386057  0.83335775  1
  Fe  Fe36  1  0.49947990  0.16532978  0.49808714  1
  Ni  Ni37  1  0.33141338  0.99900332  0.66405347  1
  Cr  Cr38  1  0.49841586  0.16642967  0.83361159  1
  Ni  Ni39  1  0.49917687  0.50158940  0.49966607  1
  Ni  Ni40  1  0.33006803  0.33506177  0.66550344  1
  Ni  Ni41  1  0.49757304  0.50016282  0.83404138  1
  Ni  Ni42  1  0.49982454  0.83235105  0.49828548  1
  Ni  Ni43  1  0.33203859  0.66584269  0.66595032  1
  Cr  Cr44  1  0.50140479  0.83120613  0.83399999  1
  Ni  Ni45  1  0.83603572  0.16575237  0.49751287  1
  Ni  Ni46  1  0.66933319  0.99795413  0.66409184  1
  Ni  Ni47  1  0.83570553  0.16476960  0.83568275  1
  Ni  Ni48  1  0.83338232  0.50072495  0.49825339  1
  Cr  Cr49  1  0.66719740  0.33289645  0.66392530  1
  Cr  Cr50  1  0.83288548  0.50308440  0.83309418  1
  Ni  Ni51  1  0.83294143  0.83358054  0.50012389  1
  Ni  Ni52  1  0.66613581  0.66849982  0.66443685  1
  Ni  Ni53  1  0.83552675  0.83523560  0.83293758  1
" 