190,Ni10Fe10Cr80_7,-236.735050267639, 180.203221317512,Ni10Fe10Cr80,"# generated using pymatgen
 data_Cr6Fe5Ni43
_symmetry_space_group_name_H-M   'P 1'
_cell_length_a   7.46704761
_cell_length_b   7.46704761
_cell_length_c   10.56000000
_cell_angle_alpha   90.00000000
_cell_angle_beta   90.00000000
_cell_angle_gamma   90.00000000
_symmetry_Int_Tables_number   1
_chemical_formula_structural   Cr6Fe5Ni43
_chemical_formula_sum   'Cr6 Fe5 Ni43'
_cell_volume   588.79180800
_cell_formula_units_Z   1
loop_
 _symmetry_equiv_pos_site_id
 _symmetry_equiv_pos_as_xyz
  1  'x, y, z'
loop_
 _atom_site_type_symbol
 _atom_site_label
 _atom_site_symmetry_multiplicity
 _atom_site_fract_x
 _atom_site_fract_y
 _atom_site_fract_z
 _atom_site_occupancy
  Ni  Ni0  1  0.00155037  0.99974813  0.99972532  1
  Ni  Ni1  1  0.16489414  0.16674632  0.16581055  1
  Ni  Ni2  1  0.99865334  0.00143208  0.33235770  1
  Ni  Ni3  1  0.00078701  0.33295935  0.99939765  1
  Ni  Ni4  1  0.16498425  0.49993371  0.16588518  1
  Ni  Ni5  1  0.00146052  0.33247141  0.33249961  1
  Ni  Ni6  1  0.00047422  0.66634885  0.99943236  1
  Ni  Ni7  1  0.16630293  0.83374467  0.16513796  1
  Ni  Ni8  1  0.00082283  0.66678607  0.33162278  1
  Ni  Ni9  1  0.33123827  0.99964938  0.99840844  1
  Cr  Cr10  1  0.49766266  0.16631491  0.16705916  1
  Ni  Ni11  1  0.33312132  0.99949947  0.33387706  1
  Ni  Ni12  1  0.33128825  0.33412511  0.99780370  1
  Cr  Cr13  1  0.50120014  0.49955853  0.16611334  1
  Ni  Ni14  1  0.33104422  0.33367552  0.33610518  1
  Ni  Ni15  1  0.33261608  0.66811054  0.99943437  1
  Ni  Ni16  1  0.49876706  0.83179807  0.16699664  1
  Ni  Ni17  1  0.33324474  0.66628874  0.33351362  1
  Cr  Cr18  1  0.66726435  0.99767275  0.00097594  1
  Ni  Ni19  1  0.83549125  0.16834514  0.16619552  1
  Ni  Ni20  1  0.66760436  0.99908808  0.33439950  1
  Ni  Ni21  1  0.66826974  0.33389651  0.99671564  1
  Ni  Ni22  1  0.83498347  0.49982301  0.16534228  1
  Ni  Ni23  1  0.66783166  0.33205532  0.33490645  1
  Ni  Ni24  1  0.66707943  0.66577768  0.99901004  1
  Ni  Ni25  1  0.83504403  0.83140357  0.16746689  1
  Ni  Ni26  1  0.66618713  0.66896719  0.33325659  1
  Ni  Ni27  1  0.16760655  0.16718518  0.49975308  1
  Ni  Ni28  1  0.99786909  0.99929412  0.66809453  1
  Ni  Ni29  1  0.16839908  0.16630838  0.83404730  1
  Ni  Ni30  1  0.16917602  0.49964977  0.50006549  1
  Cr  Cr31  1  0.00238898  0.33209638  0.66673292  1
  Fe  Fe32  1  0.16851143  0.50198598  0.83377011  1
  Cr  Cr33  1  0.16411995  0.83336678  0.50177916  1
  Ni  Ni34  1  0.00056913  0.66848606  0.66860128  1
  Ni  Ni35  1  0.16594867  0.83411604  0.83345704  1
  Ni  Ni36  1  0.50009604  0.16715994  0.50102181  1
  Fe  Fe37  1  0.33422365  0.00074377  0.66793393  1
  Ni  Ni38  1  0.49853060  0.16855016  0.83239417  1
  Ni  Ni39  1  0.49956667  0.49952580  0.50125338  1
  Ni  Ni40  1  0.33493222  0.33435415  0.66621446  1
  Fe  Fe41  1  0.49914624  0.50142365  0.83288210  1
  Ni  Ni42  1  0.50092906  0.83313576  0.50052970  1
  Ni  Ni43  1  0.33427852  0.66586817  0.66737661  1
  Ni  Ni44  1  0.49961448  0.83356000  0.83290827  1
  Ni  Ni45  1  0.83255615  0.16542329  0.50052976  1
  Ni  Ni46  1  0.66679690  0.99928341  0.66636638  1
  Fe  Fe47  1  0.83338250  0.16305745  0.83329655  1
  Cr  Cr48  1  0.83337323  0.50300276  0.49919989  1
  Ni  Ni49  1  0.66443444  0.33193571  0.66808170  1
  Fe  Fe50  1  0.83275192  0.50066359  0.83388660  1
  Ni  Ni51  1  0.83162674  0.83516073  0.50082150  1
  Ni  Ni52  1  0.66505226  0.66850731  0.66751360  1
  Ni  Ni53  1  0.83425171  0.82993553  0.83203921  1
" 