142,Ni10Fe80Cr10_4,-226.358695324662, 156.754480748316,Ni10Fe80Cr10,"# generated using pymatgen
 data_Cr6Fe43Ni5
_symmetry_space_group_name_H-M   'P 1'
_cell_length_a   7.46704761
_cell_length_b   7.46704761
_cell_length_c   10.56000000
_cell_angle_alpha   90.00000000
_cell_angle_beta   90.00000000
_cell_angle_gamma   90.00000000
_symmetry_Int_Tables_number   1
_chemical_formula_structural   Cr6Fe43Ni5
_chemical_formula_sum   'Cr6 Fe43 Ni5'
_cell_volume   588.79180800
_cell_formula_units_Z   1
loop_
 _symmetry_equiv_pos_site_id
 _symmetry_equiv_pos_as_xyz
  1  'x, y, z'
loop_
 _atom_site_type_symbol
 _atom_site_label
 _atom_site_symmetry_multiplicity
 _atom_site_fract_x
 _atom_site_fract_y
 _atom_site_fract_z
 _atom_site_occupancy
  Fe  Fe0  1  0.00117836  0.00105670  0.00143724  1
  Fe  Fe1  1  0.16684191  0.16602690  0.16842781  1
  Fe  Fe2  1  0.99763244  0.00238565  0.33420050  1
  Fe  Fe3  1  0.99929018  0.33349830  0.00252150  1
  Ni  Ni4  1  0.16596714  0.49783867  0.16770866  1
  Ni  Ni5  1  0.00068446  0.33314491  0.33306111  1
  Fe  Fe6  1  0.99853082  0.66501471  0.00263132  1
  Fe  Fe7  1  0.16756593  0.83385567  0.16739755  1
  Cr  Cr8  1  0.99930159  0.66637237  0.33255394  1
  Fe  Fe9  1  0.33345270  0.99999937  0.00133586  1
  Fe  Fe10  1  0.50009805  0.16623703  0.16910192  1
  Fe  Fe11  1  0.33259267  0.99975740  0.33370778  1
  Cr  Cr12  1  0.33486162  0.33180266  0.99865023  1
  Fe  Fe13  1  0.49991668  0.50050222  0.16854558  1
  Fe  Fe14  1  0.33321522  0.33307242  0.33253506  1
  Cr  Cr15  1  0.33177805  0.66670772  0.00033398  1
  Ni  Ni16  1  0.50072134  0.83442797  0.16836426  1
  Fe  Fe17  1  0.33428925  0.66634901  0.33211081  1
  Fe  Fe18  1  0.66575587  0.00213310  0.00369814  1
  Fe  Fe19  1  0.83313491  0.16655330  0.16979769  1
  Ni  Ni20  1  0.66516367  0.99999239  0.33449921  1
  Fe  Fe21  1  0.66890255  0.33368901  0.00068242  1
  Fe  Fe22  1  0.83232605  0.49894609  0.16731624  1
  Fe  Fe23  1  0.66925215  0.33227341  0.33433777  1
  Fe  Fe24  1  0.66674349  0.66524144  0.00277535  1
  Fe  Fe25  1  0.83169367  0.83447319  0.16671034  1
  Fe  Fe26  1  0.66563940  0.66696463  0.33313059  1
  Fe  Fe27  1  0.16564645  0.16799887  0.49842172  1
  Fe  Fe28  1  0.99915443  0.00129593  0.66488959  1
  Fe  Fe29  1  0.16414629  0.16594751  0.83340297  1
  Fe  Fe30  1  0.16698463  0.49767731  0.49828347  1
  Fe  Fe31  1  0.00032954  0.33258528  0.66443527  1
  Fe  Fe32  1  0.16361657  0.50045451  0.83266467  1
  Fe  Fe33  1  0.16573571  0.83452504  0.49974674  1
  Fe  Fe34  1  0.00062750  0.66629104  0.66445573  1
  Fe  Fe35  1  0.16475979  0.83329925  0.83288633  1
  Fe  Fe36  1  0.50155529  0.16774849  0.49830371  1
  Cr  Cr37  1  0.33440194  0.00159519  0.66706952  1
  Fe  Fe38  1  0.50399904  0.16760370  0.83307942  1
  Fe  Fe39  1  0.50080500  0.49857209  0.49933299  1
  Fe  Fe40  1  0.33334188  0.33530649  0.66728973  1
  Fe  Fe41  1  0.50268320  0.49916503  0.83127471  1
  Fe  Fe42  1  0.50084510  0.83354709  0.49787516  1
  Fe  Fe43  1  0.33248513  0.66497506  0.66514280  1
  Cr  Cr44  1  0.50103184  0.83333604  0.83349478  1
  Ni  Ni45  1  0.83430019  0.16654817  0.49961392  1
  Fe  Fe46  1  0.66867163  0.00153186  0.66323086  1
  Fe  Fe47  1  0.83347898  0.16843834  0.83235435  1
  Fe  Fe48  1  0.83340691  0.49754981  0.49969574  1
  Fe  Fe49  1  0.66712162  0.33204084  0.66515597  1
  Fe  Fe50  1  0.83301216  0.49909462  0.83282548  1
  Fe  Fe51  1  0.83204280  0.83487446  0.49995658  1
  Fe  Fe52  1  0.66648320  0.66546086  0.66406411  1
  Cr  Cr53  1  0.83280305  0.83422089  0.83348084  1
" 