312,Ni10Fe80Cr10_8,-226.531801577036, 159.009453862557,Ni10Fe80Cr10,"# generated using pymatgen
 data_Cr6Fe43Ni5
_symmetry_space_group_name_H-M   'P 1'
_cell_length_a   7.46704761
_cell_length_b   7.46704761
_cell_length_c   10.56000000
_cell_angle_alpha   90.00000000
_cell_angle_beta   90.00000000
_cell_angle_gamma   90.00000000
_symmetry_Int_Tables_number   1
_chemical_formula_structural   Cr6Fe43Ni5
_chemical_formula_sum   'Cr6 Fe43 Ni5'
_cell_volume   588.79180800
_cell_formula_units_Z   1
loop_
 _symmetry_equiv_pos_site_id
 _symmetry_equiv_pos_as_xyz
  1  'x, y, z'
loop_
 _atom_site_type_symbol
 _atom_site_label
 _atom_site_symmetry_multiplicity
 _atom_site_fract_x
 _atom_site_fract_y
 _atom_site_fract_z
 _atom_site_occupancy
  Fe  Fe0  1  0.99946282  0.00058122  0.99831277  1
  Fe  Fe1  1  0.16532282  0.16682415  0.16609349  1
  Fe  Fe2  1  0.00362988  0.00121632  0.33241178  1
  Fe  Fe3  1  0.99964673  0.33248140  0.99926462  1
  Fe  Fe4  1  0.16506976  0.49770846  0.16515269  1
  Ni  Ni5  1  0.99791088  0.33342261  0.33218816  1
  Fe  Fe6  1  0.99762493  0.66580716  0.99924098  1
  Fe  Fe7  1  0.16712579  0.83586433  0.16483035  1
  Cr  Cr8  1  0.99770279  0.66665831  0.33400989  1
  Fe  Fe9  1  0.33419907  0.00133194  0.00078475  1
  Cr  Cr10  1  0.50056698  0.16801553  0.16998584  1
  Ni  Ni11  1  0.33403816  0.00105342  0.33377542  1
  Fe  Fe12  1  0.33296964  0.33342246  0.99899662  1
  Fe  Fe13  1  0.50056785  0.50120167  0.16477164  1
  Fe  Fe14  1  0.32872716  0.33296663  0.33420416  1
  Fe  Fe15  1  0.33358633  0.66617467  0.00136875  1
  Fe  Fe16  1  0.50112456  0.83402429  0.16615525  1
  Cr  Cr17  1  0.33289769  0.66695769  0.33194406  1
  Fe  Fe18  1  0.66811720  0.99956820  0.99862114  1
  Fe  Fe19  1  0.83526245  0.16681317  0.16717273  1
  Fe  Fe20  1  0.66977326  0.99809708  0.33274826  1
  Fe  Fe21  1  0.66741611  0.33325840  0.99852074  1
  Fe  Fe22  1  0.83203897  0.49808179  0.16451628  1
  Fe  Fe23  1  0.66612515  0.33686666  0.33366140  1
  Fe  Fe24  1  0.66694886  0.66669618  0.99803625  1
  Fe  Fe25  1  0.83296788  0.83419973  0.16382107  1
  Fe  Fe26  1  0.66699945  0.66608073  0.33215494  1
  Fe  Fe27  1  0.16808015  0.16697532  0.50024559  1
  Fe  Fe28  1  0.00056537  0.00104354  0.66840668  1
  Ni  Ni29  1  0.16916837  0.16746896  0.83398787  1
  Fe  Fe30  1  0.16475359  0.49770341  0.50096881  1
  Fe  Fe31  1  0.00098730  0.33342925  0.66804745  1
  Fe  Fe32  1  0.16361029  0.49846258  0.83389443  1
  Fe  Fe33  1  0.16577387  0.83572698  0.50180736  1
  Fe  Fe34  1  0.99800129  0.66519263  0.66717890  1
  Cr  Cr35  1  0.16816627  0.83296303  0.83267639  1
  Fe  Fe36  1  0.49888487  0.16803841  0.49865336  1
  Fe  Fe37  1  0.33401948  0.00301321  0.66631524  1
  Fe  Fe38  1  0.50164274  0.16610259  0.83410334  1
  Fe  Fe39  1  0.50003724  0.49732165  0.50101859  1
  Fe  Fe40  1  0.33319498  0.33276306  0.66812884  1
  Fe  Fe41  1  0.49882218  0.50059578  0.83386510  1
  Cr  Cr42  1  0.50097593  0.83337390  0.50045119  1
  Fe  Fe43  1  0.33271338  0.66401341  0.66595140  1
  Fe  Fe44  1  0.50185158  0.83335976  0.83275556  1
  Cr  Cr45  1  0.83378225  0.16760528  0.49901644  1
  Fe  Fe46  1  0.66760952  0.00040465  0.66874208  1
  Fe  Fe47  1  0.83632177  0.16608214  0.83294084  1
  Fe  Fe48  1  0.83162547  0.50058064  0.50203160  1
  Fe  Fe49  1  0.66589120  0.33344739  0.66856736  1
  Ni  Ni50  1  0.83174112  0.49917364  0.83311824  1
  Fe  Fe51  1  0.83461735  0.83309736  0.50321545  1
  Fe  Fe52  1  0.66682136  0.66509391  0.66887173  1
  Ni  Ni53  1  0.83251791  0.83159333  0.83229608  1
" 