56,Ni10Fe80Cr10_1,-226.013452261292, 155.791813381632,Ni10Fe80Cr10,"# generated using pymatgen
 data_Cr6Fe43Ni5
_symmetry_space_group_name_H-M   'P 1'
_cell_length_a   7.46704761
_cell_length_b   7.46704761
_cell_length_c   10.56000000
_cell_angle_alpha   90.00000000
_cell_angle_beta   90.00000000
_cell_angle_gamma   90.00000000
_symmetry_Int_Tables_number   1
_chemical_formula_structural   Cr6Fe43Ni5
_chemical_formula_sum   'Cr6 Fe43 Ni5'
_cell_volume   588.79180800
_cell_formula_units_Z   1
loop_
 _symmetry_equiv_pos_site_id
 _symmetry_equiv_pos_as_xyz
  1  'x, y, z'
loop_
 _atom_site_type_symbol
 _atom_site_label
 _atom_site_symmetry_multiplicity
 _atom_site_fract_x
 _atom_site_fract_y
 _atom_site_fract_z
 _atom_site_occupancy
  Fe  Fe0  1  0.00081814  0.00082896  0.00016519  1
  Fe  Fe1  1  0.16758060  0.16660047  0.16565825  1
  Cr  Cr2  1  0.00038344  0.00018584  0.33540064  1
  Fe  Fe3  1  0.00002213  0.33428940  0.99971850  1
  Fe  Fe4  1  0.16694836  0.50038836  0.16633336  1
  Fe  Fe5  1  0.99942654  0.33491759  0.33482644  1
  Fe  Fe6  1  0.00181942  0.66578501  0.99985991  1
  Fe  Fe7  1  0.16766492  0.83262474  0.16686679  1
  Fe  Fe8  1  0.99992138  0.66423774  0.33347535  1
  Fe  Fe9  1  0.33304057  0.99907376  0.00114918  1
  Fe  Fe10  1  0.49805735  0.16571283  0.16493439  1
  Fe  Fe11  1  0.33555255  0.00059769  0.33361945  1
  Ni  Ni12  1  0.33257841  0.33390009  0.00130433  1
  Fe  Fe13  1  0.49652093  0.50186967  0.16606223  1
  Fe  Fe14  1  0.32997517  0.33340199  0.33170012  1
  Fe  Fe15  1  0.33145798  0.66631532  0.00075446  1
  Ni  Ni16  1  0.49897908  0.83498541  0.16718838  1
  Fe  Fe17  1  0.33391683  0.66681222  0.33290504  1
  Fe  Fe18  1  0.66651864  0.00085091  0.00129109  1
  Fe  Fe19  1  0.83283943  0.16573980  0.16677543  1
  Fe  Fe20  1  0.66540807  0.99999000  0.33415088  1
  Fe  Fe21  1  0.66645096  0.33273921  0.00211482  1
  Fe  Fe22  1  0.83430028  0.50188046  0.16734912  1
  Cr  Cr23  1  0.66405426  0.33535909  0.33176240  1
  Cr  Cr24  1  0.66494285  0.66600502  0.99965374  1
  Fe  Fe25  1  0.83269003  0.83397187  0.16652317  1
  Fe  Fe26  1  0.66737298  0.66900365  0.33233899  1
  Fe  Fe27  1  0.16682880  0.17038321  0.50022998  1
  Cr  Cr28  1  0.00161706  0.00129834  0.66647311  1
  Fe  Fe29  1  0.16659482  0.16879569  0.83480889  1
  Fe  Fe30  1  0.16539499  0.49914535  0.50032184  1
  Ni  Ni31  1  0.00143090  0.33426415  0.66610261  1
  Fe  Fe32  1  0.16711667  0.49873191  0.83362539  1
  Fe  Fe33  1  0.16709682  0.83085908  0.49999978  1
  Fe  Fe34  1  0.99953671  0.66479579  0.66695814  1
  Fe  Fe35  1  0.16803922  0.83310064  0.83405418  1
  Fe  Fe36  1  0.49986954  0.16866474  0.50018237  1
  Fe  Fe37  1  0.33290317  0.00004600  0.66502440  1
  Cr  Cr38  1  0.50077110  0.16590258  0.83384535  1
  Fe  Fe39  1  0.50085643  0.50018198  0.50081660  1
  Fe  Fe40  1  0.33226758  0.33356635  0.66726419  1
  Fe  Fe41  1  0.49803710  0.49912909  0.83314571  1
  Fe  Fe42  1  0.50107069  0.83130600  0.49772924  1
  Fe  Fe43  1  0.33246223  0.66656364  0.66639965  1
  Fe  Fe44  1  0.49824806  0.83154852  0.83342929  1
  Ni  Ni45  1  0.83320912  0.16944845  0.50006924  1
  Cr  Cr46  1  0.66804652  0.99710809  0.66420345  1
  Fe  Fe47  1  0.83532246  0.16860050  0.83324218  1
  Ni  Ni48  1  0.83453679  0.50012084  0.50060846  1
  Fe  Fe49  1  0.66973165  0.33378979  0.66501247  1
  Fe  Fe50  1  0.83399919  0.49799892  0.83167216  1
  Fe  Fe51  1  0.83355486  0.83032322  0.49908048  1
  Fe  Fe52  1  0.66801540  0.66292590  0.66720688  1
  Fe  Fe53  1  0.83420081  0.83333413  0.83461231  1
" 