391,Ni10Fe10Cr80_0,-237.058173175197, 182.48245542255,Ni10Fe10Cr80,"# generated using pymatgen
 data_Cr6Fe5Ni43
_symmetry_space_group_name_H-M   'P 1'
_cell_length_a   7.46704761
_cell_length_b   7.46704761
_cell_length_c   10.56000000
_cell_angle_alpha   90.00000000
_cell_angle_beta   90.00000000
_cell_angle_gamma   90.00000000
_symmetry_Int_Tables_number   1
_chemical_formula_structural   Cr6Fe5Ni43
_chemical_formula_sum   'Cr6 Fe5 Ni43'
_cell_volume   588.79180800
_cell_formula_units_Z   1
loop_
 _symmetry_equiv_pos_site_id
 _symmetry_equiv_pos_as_xyz
  1  'x, y, z'
loop_
 _atom_site_type_symbol
 _atom_site_label
 _atom_site_symmetry_multiplicity
 _atom_site_fract_x
 _atom_site_fract_y
 _atom_site_fract_z
 _atom_site_occupancy
  Ni  Ni0  1  0.00131817  0.00111130  0.00020619  1
  Ni  Ni1  1  0.16659888  0.16732981  0.16705627  1
  Ni  Ni2  1  0.00076575  0.99996363  0.33447778  1
  Ni  Ni3  1  0.00182812  0.33367505  0.00048516  1
  Fe  Fe4  1  0.16838171  0.50125892  0.16735163  1
  Ni  Ni5  1  0.00016831  0.33366846  0.33332245  1
  Ni  Ni6  1  0.00130431  0.66588785  0.00105032  1
  Ni  Ni7  1  0.16601140  0.83551602  0.16618971  1
  Ni  Ni8  1  0.00038263  0.66671837  0.33359035  1
  Ni  Ni9  1  0.33208476  0.00108357  0.00128363  1
  Ni  Ni10  1  0.49694650  0.16637656  0.16793500  1
  Ni  Ni11  1  0.33297658  0.00019650  0.33291429  1
  Ni  Ni12  1  0.33230517  0.33307547  0.99971948  1
  Ni  Ni13  1  0.50069992  0.50016775  0.16759568  1
  Ni  Ni14  1  0.33358754  0.33310876  0.33377818  1
  Ni  Ni15  1  0.33240905  0.66613614  0.99978630  1
  Ni  Ni16  1  0.50026970  0.83323004  0.16636954  1
  Ni  Ni17  1  0.33366906  0.66742871  0.33437728  1
  Ni  Ni18  1  0.66599092  0.00041034  0.00197414  1
  Fe  Fe19  1  0.83343058  0.16477204  0.16895864  1
  Ni  Ni20  1  0.66564693  0.99984051  0.33389395  1
  Cr  Cr21  1  0.66703639  0.33303720  0.00085751  1
  Ni  Ni22  1  0.83465068  0.50119943  0.16802790  1
  Ni  Ni23  1  0.66639265  0.33358407  0.33398737  1
  Ni  Ni24  1  0.66685057  0.66552634  0.00206565  1
  Ni  Ni25  1  0.83382564  0.83199598  0.16686625  1
  Ni  Ni26  1  0.66680719  0.66598057  0.33332351  1
  Ni  Ni27  1  0.16555062  0.16761513  0.49869409  1
  Ni  Ni28  1  0.00030970  0.00287079  0.66540160  1
  Ni  Ni29  1  0.16611241  0.16765655  0.83414636  1
  Ni  Ni30  1  0.16712857  0.49830976  0.49813899  1
  Ni  Ni31  1  0.99958649  0.33302918  0.66652152  1
  Ni  Ni32  1  0.16648002  0.49785635  0.83509798  1
  Ni  Ni33  1  0.16614917  0.83378747  0.49783647  1
  Cr  Cr34  1  0.00313319  0.66648411  0.66453403  1
  Ni  Ni35  1  0.16570023  0.83417613  0.83537591  1
  Ni  Ni36  1  0.50039653  0.16763051  0.49851854  1
  Cr  Cr37  1  0.33186552  0.99896876  0.66456906  1
  Ni  Ni38  1  0.49860742  0.16802083  0.83356268  1
  Ni  Ni39  1  0.49932479  0.49841754  0.49918524  1
  Fe  Fe40  1  0.33266125  0.33309847  0.66625040  1
  Ni  Ni41  1  0.49892489  0.49698174  0.83337176  1
  Ni  Ni42  1  0.50038852  0.83336997  0.49714933  1
  Fe  Fe43  1  0.33285682  0.66430055  0.66577560  1
  Cr  Cr44  1  0.49973889  0.83333440  0.83650317  1
  Ni  Ni45  1  0.83365265  0.16717083  0.50011793  1
  Ni  Ni46  1  0.66643057  0.00364747  0.66444605  1
  Fe  Fe47  1  0.83424616  0.16794849  0.83193950  1
  Ni  Ni48  1  0.83343449  0.49823022  0.49774665  1
  Ni  Ni49  1  0.66656085  0.33224934  0.66632735  1
  Ni  Ni50  1  0.83430966  0.49825918  0.83436104  1
  Ni  Ni51  1  0.83348882  0.83530105  0.49771867  1
  Cr  Cr52  1  0.66615347  0.66457746  0.66400892  1
  Cr  Cr53  1  0.83446919  0.83442834  0.83525700  1
" 