410,Ni10Fe10Cr80_2,-237.009445181149, 181.654934419567,Ni10Fe10Cr80,"# generated using pymatgen
 data_Cr6Fe5Ni43
_symmetry_space_group_name_H-M   'P 1'
_cell_length_a   7.46704761
_cell_length_b   7.46704761
_cell_length_c   10.56000000
_cell_angle_alpha   90.00000000
_cell_angle_beta   90.00000000
_cell_angle_gamma   90.00000000
_symmetry_Int_Tables_number   1
_chemical_formula_structural   Cr6Fe5Ni43
_chemical_formula_sum   'Cr6 Fe5 Ni43'
_cell_volume   588.79180800
_cell_formula_units_Z   1
loop_
 _symmetry_equiv_pos_site_id
 _symmetry_equiv_pos_as_xyz
  1  'x, y, z'
loop_
 _atom_site_type_symbol
 _atom_site_label
 _atom_site_symmetry_multiplicity
 _atom_site_fract_x
 _atom_site_fract_y
 _atom_site_fract_z
 _atom_site_occupancy
  Fe  Fe0  1  0.00116549  0.99809332  0.00137471  1
  Ni  Ni1  1  0.16597442  0.16640141  0.16640357  1
  Ni  Ni2  1  0.99965391  0.00131779  0.33224113  1
  Ni  Ni3  1  0.99997049  0.33174658  0.00152673  1
  Ni  Ni4  1  0.16660190  0.49908650  0.16908998  1
  Ni  Ni5  1  0.00018618  0.33065257  0.33141920  1
  Cr  Cr6  1  0.00041534  0.66464724  0.00179273  1
  Fe  Fe7  1  0.16871831  0.83406562  0.16773036  1
  Fe  Fe8  1  0.99948289  0.66853230  0.33255174  1
  Ni  Ni9  1  0.33543957  0.99924706  0.00056637  1
  Ni  Ni10  1  0.50031972  0.16524582  0.16752646  1
  Ni  Ni11  1  0.33318269  0.00053669  0.33280225  1
  Cr  Cr12  1  0.33123636  0.33413787  0.99960423  1
  Ni  Ni13  1  0.49987536  0.50191349  0.16711095  1
  Ni  Ni14  1  0.33363086  0.33254726  0.33262296  1
  Ni  Ni15  1  0.33525826  0.66818441  0.00017246  1
  Ni  Ni16  1  0.50056648  0.83389715  0.16637056  1
  Ni  Ni17  1  0.33578685  0.66760052  0.33150248  1
  Ni  Ni18  1  0.66591358  0.99805053  0.00136829  1
  Ni  Ni19  1  0.83361475  0.16628111  0.16586495  1
  Ni  Ni20  1  0.66733491  0.99955110  0.33361345  1
  Fe  Fe21  1  0.66437642  0.33423337  0.00173808  1
  Ni  Ni22  1  0.83288053  0.49921112  0.16732988  1
  Ni  Ni23  1  0.66626736  0.33283558  0.33122886  1
  Ni  Ni24  1  0.66529387  0.66946674  0.00019086  1
  Ni  Ni25  1  0.83172338  0.83421942  0.16751253  1
  Ni  Ni26  1  0.66581371  0.66796241  0.33268852  1
  Ni  Ni27  1  0.16676816  0.16492197  0.50068627  1
  Ni  Ni28  1  0.00076015  0.99898509  0.66699845  1
  Fe  Fe29  1  0.16813465  0.16503349  0.83261745  1
  Cr  Cr30  1  0.16934899  0.50069012  0.49972323  1
  Ni  Ni31  1  0.00192784  0.33099673  0.66712421  1
  Ni  Ni32  1  0.16724954  0.50105495  0.83114925  1
  Ni  Ni33  1  0.16745505  0.83599105  0.49877800  1
  Ni  Ni34  1  0.00094116  0.66985144  0.66650765  1
  Ni  Ni35  1  0.16874781  0.83304145  0.83374988  1
  Ni  Ni36  1  0.49988581  0.16604779  0.49915584  1
  Ni  Ni37  1  0.33355114  0.99992749  0.66661852  1
  Ni  Ni38  1  0.49926852  0.16490846  0.83293987  1
  Ni  Ni39  1  0.50002431  0.50012337  0.50005477  1
  Ni  Ni40  1  0.33423376  0.33231014  0.66727503  1
  Ni  Ni41  1  0.49722645  0.50158719  0.83233746  1
  Ni  Ni42  1  0.49931288  0.83401203  0.49997917  1
  Ni  Ni43  1  0.33407741  0.66779469  0.66810619  1
  Ni  Ni44  1  0.49949438  0.83455247  0.83372768  1
  Ni  Ni45  1  0.83347024  0.16498628  0.49964601  1
  Ni  Ni46  1  0.66631213  0.99916413  0.66538433  1
  Cr  Cr47  1  0.83192891  0.16406930  0.83488109  1
  Cr  Cr48  1  0.83224517  0.49931017  0.50091026  1
  Ni  Ni49  1  0.66367986  0.33179254  0.66636037  1
  Cr  Cr50  1  0.83180577  0.49982115  0.83126869  1
  Ni  Ni51  1  0.83344123  0.83603078  0.50074035  1
  Ni  Ni52  1  0.66468187  0.66935591  0.66700987  1
  Ni  Ni53  1  0.83334321  0.83397484  0.83232575  1
" 