400,Ni10Fe80Cr10_11,-226.074360943113, 156.151239839816,Ni10Fe80Cr10,"# generated using pymatgen
 data_Cr6Fe43Ni5
_symmetry_space_group_name_H-M   'P 1'
_cell_length_a   7.46704761
_cell_length_b   7.46704761
_cell_length_c   10.56000000
_cell_angle_alpha   90.00000000
_cell_angle_beta   90.00000000
_cell_angle_gamma   90.00000000
_symmetry_Int_Tables_number   1
_chemical_formula_structural   Cr6Fe43Ni5
_chemical_formula_sum   'Cr6 Fe43 Ni5'
_cell_volume   588.79180800
_cell_formula_units_Z   1
loop_
 _symmetry_equiv_pos_site_id
 _symmetry_equiv_pos_as_xyz
  1  'x, y, z'
loop_
 _atom_site_type_symbol
 _atom_site_label
 _atom_site_symmetry_multiplicity
 _atom_site_fract_x
 _atom_site_fract_y
 _atom_site_fract_z
 _atom_site_occupancy
  Fe  Fe0  1  0.99892113  0.00110353  0.00088749  1
  Ni  Ni1  1  0.16653026  0.16794785  0.16703200  1
  Fe  Fe2  1  0.99980016  0.00111229  0.33356892  1
  Fe  Fe3  1  0.99900108  0.33259531  0.00179555  1
  Fe  Fe4  1  0.16585055  0.49957470  0.16656052  1
  Fe  Fe5  1  0.00046847  0.33505996  0.33312443  1
  Fe  Fe6  1  0.99855491  0.66502249  0.00018586  1
  Cr  Cr7  1  0.16638664  0.83515194  0.16512820  1
  Ni  Ni8  1  0.00157897  0.66661727  0.33401631  1
  Fe  Fe9  1  0.33533986  0.00151000  0.00130930  1
  Fe  Fe10  1  0.49707753  0.16472887  0.16448493  1
  Fe  Fe11  1  0.33287399  0.00135666  0.33360202  1
  Ni  Ni12  1  0.33169158  0.33580359  0.00214051  1
  Fe  Fe13  1  0.49717940  0.50057796  0.16602427  1
  Fe  Fe14  1  0.32973404  0.33432537  0.33126718  1
  Fe  Fe15  1  0.33530302  0.66690949  0.99928523  1
  Fe  Fe16  1  0.50129976  0.83423828  0.16672735  1
  Fe  Fe17  1  0.33350557  0.66681951  0.33283107  1
  Ni  Ni18  1  0.66831481  0.99919738  0.00221464  1
  Fe  Fe19  1  0.83551188  0.16397920  0.16571860  1
  Fe  Fe20  1  0.66754858  0.99599147  0.33235937  1
  Fe  Fe21  1  0.66602695  0.33353278  0.00305464  1
  Fe  Fe22  1  0.83611591  0.50066319  0.16794233  1
  Cr  Cr23  1  0.66536295  0.32923407  0.33066541  1
  Fe  Fe24  1  0.66620088  0.66619351  0.00071520  1
  Fe  Fe25  1  0.83359235  0.83293976  0.16707703  1
  Fe  Fe26  1  0.66957877  0.66562147  0.33231230  1
  Fe  Fe27  1  0.16598459  0.16874518  0.49891320  1
  Fe  Fe28  1  0.00120159  0.99840323  0.66511045  1
  Cr  Cr29  1  0.16536233  0.16358745  0.83443975  1
  Fe  Fe30  1  0.16468065  0.50085765  0.49991280  1
  Fe  Fe31  1  0.99839693  0.33329096  0.66585129  1
  Fe  Fe32  1  0.16680003  0.49937984  0.83435658  1
  Fe  Fe33  1  0.16634655  0.83164901  0.49862511  1
  Fe  Fe34  1  0.99940992  0.66650234  0.66567105  1
  Fe  Fe35  1  0.16673730  0.83051642  0.83457102  1
  Fe  Fe36  1  0.49841203  0.16658485  0.49950140  1
  Fe  Fe37  1  0.33193868  0.99854002  0.66464463  1
  Cr  Cr38  1  0.49988682  0.16936585  0.83425024  1
  Cr  Cr39  1  0.50156477  0.50041976  0.50133393  1
  Fe  Fe40  1  0.33173127  0.33407828  0.66718394  1
  Fe  Fe41  1  0.49912891  0.50179947  0.83405242  1
  Fe  Fe42  1  0.50052832  0.83282422  0.49813315  1
  Fe  Fe43  1  0.33313788  0.66876869  0.66800629  1
  Fe  Fe44  1  0.50071808  0.83427598  0.83484335  1
  Fe  Fe45  1  0.83464601  0.16845245  0.49895647  1
  Cr  Cr46  1  0.66758608  0.00079036  0.66411098  1
  Fe  Fe47  1  0.83262216  0.16655287  0.83516520  1
  Ni  Ni48  1  0.83403029  0.50079391  0.50004353  1
  Fe  Fe49  1  0.66923024  0.33538609  0.66635375  1
  Fe  Fe50  1  0.83328580  0.49882222  0.83300599  1
  Fe  Fe51  1  0.83446312  0.83061627  0.49793353  1
  Fe  Fe52  1  0.66875895  0.66659647  0.66789981  1
  Fe  Fe53  1  0.83406073  0.83459227  0.83509948  1
" 