380,Ni10Fe80Cr10_7,-226.082614942164, 153.502580157705,Ni10Fe80Cr10,"# generated using pymatgen
 data_Cr6Fe43Ni5
_symmetry_space_group_name_H-M   'P 1'
_cell_length_a   7.46704761
_cell_length_b   7.46704761
_cell_length_c   10.56000000
_cell_angle_alpha   90.00000000
_cell_angle_beta   90.00000000
_cell_angle_gamma   90.00000000
_symmetry_Int_Tables_number   1
_chemical_formula_structural   Cr6Fe43Ni5
_chemical_formula_sum   'Cr6 Fe43 Ni5'
_cell_volume   588.79180800
_cell_formula_units_Z   1
loop_
 _symmetry_equiv_pos_site_id
 _symmetry_equiv_pos_as_xyz
  1  'x, y, z'
loop_
 _atom_site_type_symbol
 _atom_site_label
 _atom_site_symmetry_multiplicity
 _atom_site_fract_x
 _atom_site_fract_y
 _atom_site_fract_z
 _atom_site_occupancy
  Fe  Fe0  1  0.00060553  0.99782272  0.00178292  1
  Fe  Fe1  1  0.16732750  0.16606435  0.16783155  1
  Fe  Fe2  1  0.00104633  0.00072378  0.33072398  1
  Fe  Fe3  1  0.99922020  0.33527737  0.00184840  1
  Fe  Fe4  1  0.16773137  0.50096046  0.16718871  1
  Fe  Fe5  1  0.00000736  0.33413988  0.33134398  1
  Fe  Fe6  1  0.00150690  0.66694083  0.99935973  1
  Fe  Fe7  1  0.16746077  0.83254091  0.16486141  1
  Fe  Fe8  1  0.00241254  0.66548621  0.33229037  1
  Fe  Fe9  1  0.33418704  0.99642486  0.99986240  1
  Fe  Fe10  1  0.49996644  0.16593102  0.16778524  1
  Fe  Fe11  1  0.33425222  0.99936797  0.33418967  1
  Cr  Cr12  1  0.33503995  0.33325797  0.00048037  1
  Fe  Fe13  1  0.49963997  0.50091723  0.16730350  1
  Ni  Ni14  1  0.33374223  0.33296004  0.33267429  1
  Ni  Ni15  1  0.33284400  0.66724736  0.99919092  1
  Fe  Fe16  1  0.49900924  0.83242078  0.16693012  1
  Fe  Fe17  1  0.33368779  0.66718484  0.33169988  1
  Fe  Fe18  1  0.66465680  0.99918289  0.00104705  1
  Fe  Fe19  1  0.83305554  0.16644132  0.16579085  1
  Fe  Fe20  1  0.66405764  0.00095294  0.33199946  1
  Fe  Fe21  1  0.66747930  0.33440608  0.00001056  1
  Fe  Fe22  1  0.83315464  0.50092845  0.16625692  1
  Fe  Fe23  1  0.66619593  0.33260227  0.33159591  1
  Fe  Fe24  1  0.66461418  0.66665601  0.00010187  1
  Fe  Fe25  1  0.83298035  0.83281384  0.16724575  1
  Fe  Fe26  1  0.66548041  0.66607256  0.33159565  1
  Cr  Cr27  1  0.16422270  0.16733918  0.50025772  1
  Fe  Fe28  1  0.00022528  0.99955325  0.66779149  1
  Cr  Cr29  1  0.16546211  0.16559423  0.83469196  1
  Fe  Fe30  1  0.16759751  0.50178903  0.49790306  1
  Fe  Fe31  1  0.99808206  0.33214561  0.66739741  1
  Fe  Fe32  1  0.16732201  0.50244772  0.83416477  1
  Fe  Fe33  1  0.17103626  0.83309403  0.50055362  1
  Cr  Cr34  1  0.00103201  0.66586612  0.66638965  1
  Ni  Ni35  1  0.16709972  0.83423229  0.83392118  1
  Fe  Fe36  1  0.49984186  0.16441390  0.49973058  1
  Ni  Ni37  1  0.33563801  0.00023596  0.66631981  1
  Fe  Fe38  1  0.50084704  0.16457664  0.83250373  1
  Cr  Cr39  1  0.50082162  0.50101101  0.50033619  1
  Fe  Fe40  1  0.33281423  0.33409312  0.66711156  1
  Fe  Fe41  1  0.49930594  0.50201611  0.83282271  1
  Ni  Ni42  1  0.50074417  0.83271472  0.49977189  1
  Fe  Fe43  1  0.33466987  0.67015038  0.66852988  1
  Fe  Fe44  1  0.49807809  0.83415643  0.83294672  1
  Fe  Fe45  1  0.82928683  0.16772257  0.49930436  1
  Fe  Fe46  1  0.66579140  0.99944200  0.66681065  1
  Fe  Fe47  1  0.83216408  0.16497435  0.83515248  1
  Fe  Fe48  1  0.83403668  0.49801018  0.49872273  1
  Fe  Fe49  1  0.66667459  0.33198212  0.66849649  1
  Fe  Fe50  1  0.83385223  0.49987112  0.83465790  1
  Cr  Cr51  1  0.83276974  0.83383575  0.49786233  1
  Fe  Fe52  1  0.66532147  0.66858133  0.66805039  1
  Fe  Fe53  1  0.83390032  0.83442595  0.83480730  1
" 