365,Ni10Fe10Cr80_8,-237.042195521499, 183.047249511239,Ni10Fe10Cr80,"# generated using pymatgen
 data_Cr6Fe5Ni43
_symmetry_space_group_name_H-M   'P 1'
_cell_length_a   7.46704761
_cell_length_b   7.46704761
_cell_length_c   10.56000000
_cell_angle_alpha   90.00000000
_cell_angle_beta   90.00000000
_cell_angle_gamma   90.00000000
_symmetry_Int_Tables_number   1
_chemical_formula_structural   Cr6Fe5Ni43
_chemical_formula_sum   'Cr6 Fe5 Ni43'
_cell_volume   588.79180800
_cell_formula_units_Z   1
loop_
 _symmetry_equiv_pos_site_id
 _symmetry_equiv_pos_as_xyz
  1  'x, y, z'
loop_
 _atom_site_type_symbol
 _atom_site_label
 _atom_site_symmetry_multiplicity
 _atom_site_fract_x
 _atom_site_fract_y
 _atom_site_fract_z
 _atom_site_occupancy
  Ni  Ni0  1  0.99992006  0.99952194  0.99985770  1
  Cr  Cr1  1  0.16437850  0.16675528  0.16782162  1
  Ni  Ni2  1  0.99952095  0.99924258  0.33436721  1
  Ni  Ni3  1  0.99813183  0.33453268  0.99863086  1
  Ni  Ni4  1  0.16736035  0.50158720  0.16851961  1
  Ni  Ni5  1  0.00008766  0.33453173  0.33459698  1
  Ni  Ni6  1  0.00159537  0.66647331  0.00093453  1
  Ni  Ni7  1  0.16517389  0.83161855  0.16744696  1
  Ni  Ni8  1  0.00040298  0.66747105  0.33385813  1
  Ni  Ni9  1  0.33248274  0.99755076  0.99724147  1
  Fe  Fe10  1  0.49992319  0.16500146  0.16646643  1
  Ni  Ni11  1  0.33313462  0.99966868  0.33552211  1
  Cr  Cr12  1  0.33506543  0.33488156  0.99899308  1
  Ni  Ni13  1  0.49913157  0.50113872  0.16694176  1
  Ni  Ni14  1  0.33248668  0.33455796  0.33423912  1
  Ni  Ni15  1  0.33228743  0.66729456  0.99881419  1
  Cr  Cr16  1  0.50049414  0.83136985  0.16669674  1
  Ni  Ni17  1  0.33255951  0.66610196  0.33437072  1
  Ni  Ni18  1  0.66673287  0.00177315  0.00000995  1
  Ni  Ni19  1  0.83401970  0.16543500  0.16595460  1
  Ni  Ni20  1  0.66790140  0.99933798  0.33445193  1
  Ni  Ni21  1  0.66865812  0.33353276  0.00025290  1
  Fe  Fe22  1  0.83556864  0.50195682  0.16539082  1
  Cr  Cr23  1  0.66570258  0.33317947  0.33147110  1
  Ni  Ni24  1  0.66678161  0.66485777  0.00020444  1
  Ni  Ni25  1  0.83444749  0.83461437  0.16746445  1
  Ni  Ni26  1  0.66762581  0.66698262  0.33421587  1
  Ni  Ni27  1  0.16667033  0.16957552  0.49930367  1
  Cr  Cr28  1  0.00105343  0.99981329  0.66682992  1
  Ni  Ni29  1  0.16648892  0.16755482  0.83296892  1
  Fe  Fe30  1  0.16684838  0.49994883  0.50036708  1
  Ni  Ni31  1  0.99952316  0.33455456  0.66704470  1
  Ni  Ni32  1  0.16611048  0.50032491  0.83173148  1
  Fe  Fe33  1  0.16870873  0.83442691  0.49975243  1
  Ni  Ni34  1  0.00041747  0.66419631  0.66565981  1
  Ni  Ni35  1  0.16858509  0.83182342  0.83400973  1
  Ni  Ni36  1  0.49882743  0.16675638  0.49937207  1
  Ni  Ni37  1  0.33567987  0.00063308  0.66698179  1
  Ni  Ni38  1  0.50105961  0.16621880  0.83266641  1
  Ni  Ni39  1  0.49798056  0.50125647  0.50057625  1
  Ni  Ni40  1  0.33380847  0.33351598  0.66641280  1
  Ni  Ni41  1  0.50088379  0.50120667  0.83230829  1
  Ni  Ni42  1  0.50174911  0.83197644  0.50029211  1
  Ni  Ni43  1  0.33362778  0.66685944  0.66726074  1
  Ni  Ni44  1  0.49864789  0.83254166  0.83253895  1
  Ni  Ni45  1  0.83442224  0.16558617  0.50010943  1
  Ni  Ni46  1  0.66450731  0.00096110  0.66505279  1
  Ni  Ni47  1  0.83295977  0.16914879  0.83386147  1
  Fe  Fe48  1  0.83188568  0.49922775  0.50150636  1
  Ni  Ni49  1  0.66585054  0.33290506  0.66719038  1
  Ni  Ni50  1  0.83341995  0.49841867  0.83316487  1
  Ni  Ni51  1  0.83221737  0.83211445  0.49852466  1
  Ni  Ni52  1  0.66582016  0.66532507  0.66553824  1
  Cr  Cr53  1  0.83067137  0.83215968  0.83423941  1
" 