448,Ni10Fe10Cr80_12,-236.787945545387, 181.57023317815,Ni10Fe10Cr80,"# generated using pymatgen
 data_Cr6Fe5Ni43
_symmetry_space_group_name_H-M   'P 1'
_cell_length_a   7.46704761
_cell_length_b   7.46704761
_cell_length_c   10.56000000
_cell_angle_alpha   90.00000000
_cell_angle_beta   90.00000000
_cell_angle_gamma   90.00000000
_symmetry_Int_Tables_number   1
_chemical_formula_structural   Cr6Fe5Ni43
_chemical_formula_sum   'Cr6 Fe5 Ni43'
_cell_volume   588.79180800
_cell_formula_units_Z   1
loop_
 _symmetry_equiv_pos_site_id
 _symmetry_equiv_pos_as_xyz
  1  'x, y, z'
loop_
 _atom_site_type_symbol
 _atom_site_label
 _atom_site_symmetry_multiplicity
 _atom_site_fract_x
 _atom_site_fract_y
 _atom_site_fract_z
 _atom_site_occupancy
  Ni  Ni0  1  0.00101006  0.00151244  0.99955549  1
  Fe  Fe1  1  0.16574111  0.16769982  0.16619421  1
  Ni  Ni2  1  0.99949455  0.00243095  0.33272624  1
  Ni  Ni3  1  0.00061273  0.33167785  0.99968356  1
  Ni  Ni4  1  0.16883135  0.49963155  0.16619699  1
  Ni  Ni5  1  0.00120895  0.33182656  0.33339335  1
  Cr  Cr6  1  0.00032701  0.66756219  0.99838807  1
  Ni  Ni7  1  0.16777855  0.83457621  0.16619246  1
  Cr  Cr8  1  0.99911817  0.66633972  0.33342909  1
  Ni  Ni9  1  0.33237556  0.00004110  0.99964699  1
  Ni  Ni10  1  0.49840674  0.16533345  0.16617565  1
  Ni  Ni11  1  0.33297285  0.00017824  0.33149321  1
  Ni  Ni12  1  0.33265191  0.33263743  0.99919595  1
  Ni  Ni13  1  0.49770645  0.49990413  0.16666960  1
  Ni  Ni14  1  0.33143673  0.33361057  0.33289254  1
  Ni  Ni15  1  0.33506377  0.66702508  0.99958938  1
  Fe  Fe16  1  0.50058131  0.83196887  0.16655907  1
  Ni  Ni17  1  0.33535993  0.66596113  0.33246603  1
  Fe  Fe18  1  0.66656572  0.99900892  0.99943795  1
  Ni  Ni19  1  0.83359149  0.16460951  0.16659702  1
  Ni  Ni20  1  0.66725321  0.99833621  0.33233885  1
  Cr  Cr21  1  0.66631121  0.33373153  0.99922378  1
  Ni  Ni22  1  0.83352794  0.50008902  0.16643916  1
  Cr  Cr23  1  0.66735442  0.33439082  0.33350145  1
  Ni  Ni24  1  0.66549934  0.66667105  0.99974545  1
  Ni  Ni25  1  0.83312363  0.83535598  0.16647154  1
  Ni  Ni26  1  0.66519575  0.66775366  0.33382131  1
  Ni  Ni27  1  0.16506533  0.16808811  0.49864184  1
  Ni  Ni28  1  0.00011531  0.00098511  0.66758902  1
  Ni  Ni29  1  0.16682999  0.16636000  0.83434640  1
  Ni  Ni30  1  0.16781242  0.49808001  0.50073337  1
  Fe  Fe31  1  0.99978543  0.33322107  0.66700494  1
  Ni  Ni32  1  0.16799633  0.49938587  0.83302828  1
  Cr  Cr33  1  0.16780479  0.83429602  0.50114432  1
  Ni  Ni34  1  0.99964614  0.66656707  0.66819571  1
  Ni  Ni35  1  0.16754198  0.83423878  0.83268002  1
  Cr  Cr36  1  0.49924536  0.16470814  0.50146866  1
  Ni  Ni37  1  0.33268574  0.99984570  0.66864648  1
  Ni  Ni38  1  0.49911774  0.16583525  0.83265843  1
  Ni  Ni39  1  0.49884934  0.50210860  0.50072745  1
  Fe  Fe40  1  0.33309557  0.33379832  0.66772515  1
  Ni  Ni41  1  0.49907959  0.50070017  0.83262813  1
  Ni  Ni42  1  0.50157909  0.83182874  0.49900285  1
  Ni  Ni43  1  0.33402641  0.66676561  0.66798880  1
  Ni  Ni44  1  0.49981975  0.83335208  0.83421194  1
  Ni  Ni45  1  0.83531114  0.16543370  0.50075945  1
  Ni  Ni46  1  0.66709291  0.99995103  0.66842059  1
  Ni  Ni47  1  0.83408381  0.16554818  0.83279955  1
  Ni  Ni48  1  0.83353287  0.50016389  0.50166925  1
  Ni  Ni49  1  0.66755415  0.33400465  0.66773375  1
  Ni  Ni50  1  0.83328283  0.50000352  0.83211423  1
  Ni  Ni51  1  0.83097227  0.83471093  0.50108221  1
  Ni  Ni52  1  0.66639247  0.66583137  0.66650129  1
  Ni  Ni53  1  0.83258079  0.83432411  0.83247352  1
" 