245,Ni20Fe60Cr20_6,-227.999418620209, 184.963265128789,Ni20Fe60Cr20,"# generated using pymatgen
 data_Cr6Fe16Ni5
_symmetry_space_group_name_H-M   'P 1'
_cell_length_a   7.46704761
_cell_length_b   7.46704761
_cell_length_c   10.56000000
_cell_angle_alpha   90.00000000
_cell_angle_beta   90.00000000
_cell_angle_gamma   90.00000000
_symmetry_Int_Tables_number   1
_chemical_formula_structural   Cr6Fe16Ni5
_chemical_formula_sum   'Cr12 Fe32 Ni10'
_cell_volume   588.79180800
_cell_formula_units_Z   2
loop_
 _symmetry_equiv_pos_site_id
 _symmetry_equiv_pos_as_xyz
  1  'x, y, z'
loop_
 _atom_site_type_symbol
 _atom_site_label
 _atom_site_symmetry_multiplicity
 _atom_site_fract_x
 _atom_site_fract_y
 _atom_site_fract_z
 _atom_site_occupancy
  Ni  Ni0  1  0.99745032  0.00012288  0.99845284  1
  Cr  Cr1  1  0.16371408  0.16787590  0.16726540  1
  Cr  Cr2  1  0.99951895  0.00038678  0.33630439  1
  Fe  Fe3  1  0.99525980  0.33447467  0.99772853  1
  Cr  Cr4  1  0.16464820  0.49888210  0.16638551  1
  Fe  Fe5  1  0.99830125  0.33442137  0.33731747  1
  Fe  Fe6  1  0.99763015  0.66791855  0.99872695  1
  Cr  Cr7  1  0.16694967  0.83433301  0.16471559  1
  Fe  Fe8  1  0.99826891  0.66670668  0.33465405  1
  Fe  Fe9  1  0.33522873  0.99871735  0.99702719  1
  Fe  Fe10  1  0.49973663  0.16621835  0.16732828  1
  Fe  Fe11  1  0.33595689  0.00283208  0.33555325  1
  Cr  Cr12  1  0.33539400  0.33435464  0.99832156  1
  Ni  Ni13  1  0.50054701  0.50057836  0.16819506  1
  Fe  Fe14  1  0.33354318  0.33208628  0.33526246  1
  Fe  Fe15  1  0.33505807  0.66780981  0.99774439  1
  Cr  Cr16  1  0.50284062  0.83305485  0.16812276  1
  Fe  Fe17  1  0.33392818  0.66501945  0.33419916  1
  Fe  Fe18  1  0.66796133  0.99939527  0.00051079  1
  Fe  Fe19  1  0.83153528  0.16571142  0.16503729  1
  Ni  Ni20  1  0.66847003  0.00132215  0.33236662  1
  Fe  Fe21  1  0.66826204  0.33358463  0.00173076  1
  Fe  Fe22  1  0.83208488  0.50279631  0.16594111  1
  Cr  Cr23  1  0.66550418  0.33328543  0.33147780  1
  Ni  Ni24  1  0.66751054  0.66590070  0.00230752  1
  Ni  Ni25  1  0.83303406  0.83448644  0.16710512  1
  Fe  Fe26  1  0.67078582  0.66737015  0.33234377  1
  Fe  Fe27  1  0.16931076  0.16537086  0.50227792  1
  Fe  Fe28  1  0.99898346  0.99519357  0.66678485  1
  Cr  Cr29  1  0.16407894  0.16679854  0.83190937  1
  Fe  Fe30  1  0.16815479  0.50003963  0.50008214  1
  Cr  Cr31  1  0.99700408  0.33269386  0.66534707  1
  Ni  Ni32  1  0.16313959  0.50080820  0.83341884  1
  Fe  Fe33  1  0.16900621  0.83405476  0.50076292  1
  Fe  Fe34  1  0.00018894  0.66811510  0.66665824  1
  Fe  Fe35  1  0.16813636  0.83270006  0.83522460  1
  Ni  Ni36  1  0.49899105  0.16595718  0.50181021  1
  Ni  Ni37  1  0.33361617  0.99972549  0.66756102  1
  Fe  Fe38  1  0.50057478  0.16475739  0.83049175  1
  Fe  Fe39  1  0.50047891  0.49849583  0.49990482  1
  Fe  Fe40  1  0.33381854  0.33285656  0.66584772  1
  Cr  Cr41  1  0.50292733  0.50138924  0.83082166  1
  Cr  Cr42  1  0.50447451  0.83350686  0.49719105  1
  Cr  Cr43  1  0.33494517  0.66828980  0.66917354  1
  Ni  Ni44  1  0.50485671  0.83459095  0.83434985  1
  Fe  Fe45  1  0.82896721  0.16446375  0.50099090  1
  Fe  Fe46  1  0.66601488  0.99829312  0.66648717  1
  Fe  Fe47  1  0.82894550  0.16592026  0.83369132  1
  Fe  Fe48  1  0.83082133  0.50146479  0.50020591  1
  Fe  Fe49  1  0.66380123  0.33226598  0.66436380  1
  Fe  Fe50  1  0.83282446  0.50221799  0.83306132  1
  Fe  Fe51  1  0.83409661  0.83295497  0.49987273  1
  Ni  Ni52  1  0.66975596  0.66645571  0.66491225  1
  Fe  Fe53  1  0.83296370  0.83097394  0.83467143  1
" 