304,Ni20Fe20Cr60_3,-232.460273913641, 178.279478616967,Ni20Fe20Cr60,"# generated using pymatgen
 data_Cr6Fe5Ni16
_symmetry_space_group_name_H-M   'P 1'
_cell_length_a   7.46704761
_cell_length_b   7.46704761
_cell_length_c   10.56000000
_cell_angle_alpha   90.00000000
_cell_angle_beta   90.00000000
_cell_angle_gamma   90.00000000
_symmetry_Int_Tables_number   1
_chemical_formula_structural   Cr6Fe5Ni16
_chemical_formula_sum   'Cr12 Fe10 Ni32'
_cell_volume   588.79180800
_cell_formula_units_Z   2
loop_
 _symmetry_equiv_pos_site_id
 _symmetry_equiv_pos_as_xyz
  1  'x, y, z'
loop_
 _atom_site_type_symbol
 _atom_site_label
 _atom_site_symmetry_multiplicity
 _atom_site_fract_x
 _atom_site_fract_y
 _atom_site_fract_z
 _atom_site_occupancy
  Ni  Ni0  1  0.99993406  0.00112032  0.99950332  1
  Ni  Ni1  1  0.16773747  0.16687208  0.16808668  1
  Ni  Ni2  1  0.99845671  0.00000420  0.33207606  1
  Ni  Ni3  1  0.00088883  0.33477317  0.00001005  1
  Fe  Fe4  1  0.16476708  0.49863737  0.16764469  1
  Ni  Ni5  1  0.99809584  0.33339906  0.33267847  1
  Fe  Fe6  1  0.00010311  0.66762367  0.00063602  1
  Fe  Fe7  1  0.16486789  0.83543402  0.16594815  1
  Ni  Ni8  1  0.99525006  0.66782283  0.33000425  1
  Ni  Ni9  1  0.33263923  0.99879512  0.00314672  1
  Fe  Fe10  1  0.49988676  0.16569320  0.16675816  1
  Ni  Ni11  1  0.33411482  0.00110657  0.33143437  1
  Ni  Ni12  1  0.33078962  0.33405065  0.00437964  1
  Fe  Fe13  1  0.50192389  0.49852706  0.16664893  1
  Ni  Ni14  1  0.33505949  0.33120136  0.33142373  1
  Ni  Ni15  1  0.33330053  0.66626785  0.00257286  1
  Ni  Ni16  1  0.49991226  0.83223326  0.16596174  1
  Cr  Cr17  1  0.33590215  0.66782495  0.33193153  1
  Ni  Ni18  1  0.66812456  0.99703711  0.00169261  1
  Cr  Cr19  1  0.83613880  0.16858164  0.16604745  1
  Fe  Fe20  1  0.66626957  0.99948437  0.33294140  1
  Fe  Fe21  1  0.66844419  0.33338189  0.00164326  1
  Ni  Ni22  1  0.83336523  0.50178717  0.16730803  1
  Ni  Ni23  1  0.66720229  0.33487821  0.33329728  1
  Ni  Ni24  1  0.66756872  0.66696123  0.00280128  1
  Fe  Fe25  1  0.83292357  0.83336658  0.16640928  1
  Ni  Ni26  1  0.66834067  0.66694144  0.33270574  1
  Cr  Cr27  1  0.16463720  0.16475604  0.49754817  1
  Ni  Ni28  1  0.99520297  0.99733299  0.66844085  1
  Cr  Cr29  1  0.16676903  0.16376032  0.83299500  1
  Cr  Cr30  1  0.16270780  0.50057838  0.49681128  1
  Cr  Cr31  1  0.99553096  0.33342786  0.66730170  1
  Fe  Fe32  1  0.16466060  0.50177721  0.83588260  1
  Cr  Cr33  1  0.16251244  0.83463419  0.49992150  1
  Ni  Ni34  1  0.99459682  0.66936049  0.66995150  1
  Ni  Ni35  1  0.16501560  0.83264462  0.83512864  1
  Ni  Ni36  1  0.50351237  0.16585978  0.49699950  1
  Ni  Ni37  1  0.33490487  0.99842560  0.66503706  1
  Cr  Cr38  1  0.50269438  0.16543959  0.83650859  1
  Ni  Ni39  1  0.50458986  0.49964200  0.49731075  1
  Cr  Cr40  1  0.33720122  0.33240239  0.66371436  1
  Cr  Cr41  1  0.50305831  0.50072193  0.83636204  1
  Ni  Ni42  1  0.50359426  0.83422125  0.49982146  1
  Cr  Cr43  1  0.33328350  0.66689482  0.66579242  1
  Cr  Cr44  1  0.50126494  0.83314412  0.83249324  1
  Ni  Ni45  1  0.83056241  0.16569177  0.49865949  1
  Ni  Ni46  1  0.66980852  0.00028421  0.66498711  1
  Ni  Ni47  1  0.83363999  0.16683524  0.83551236  1
  Fe  Fe48  1  0.83025306  0.50130451  0.49812261  1
  Ni  Ni49  1  0.66888273  0.33301307  0.66608168  1
  Ni  Ni50  1  0.83322505  0.50120981  0.83486833  1
  Ni  Ni51  1  0.83081434  0.83331486  0.49799721  1
  Ni  Ni52  1  0.67036568  0.66689538  0.66434755  1
  Ni  Ni53  1  0.83470367  0.83262123  0.83571130  1
" 