311,Ni20Fe20Cr60_0,-232.698829022329, 186.863946063111,Ni20Fe20Cr60,"# generated using pymatgen
 data_Cr6Fe5Ni16
_symmetry_space_group_name_H-M   'P 1'
_cell_length_a   7.46704761
_cell_length_b   7.46704761
_cell_length_c   10.56000000
_cell_angle_alpha   90.00000000
_cell_angle_beta   90.00000000
_cell_angle_gamma   90.00000000
_symmetry_Int_Tables_number   1
_chemical_formula_structural   Cr6Fe5Ni16
_chemical_formula_sum   'Cr12 Fe10 Ni32'
_cell_volume   588.79180800
_cell_formula_units_Z   2
loop_
 _symmetry_equiv_pos_site_id
 _symmetry_equiv_pos_as_xyz
  1  'x, y, z'
loop_
 _atom_site_type_symbol
 _atom_site_label
 _atom_site_symmetry_multiplicity
 _atom_site_fract_x
 _atom_site_fract_y
 _atom_site_fract_z
 _atom_site_occupancy
  Cr  Cr0  1  0.00023421  0.99894516  0.00095877  1
  Ni  Ni1  1  0.16790791  0.17035212  0.16879471  1
  Cr  Cr2  1  0.99962435  0.99908371  0.33186958  1
  Fe  Fe3  1  0.00267849  0.33336768  0.99958852  1
  Ni  Ni4  1  0.16664751  0.49870794  0.16595097  1
  Ni  Ni5  1  0.99956173  0.33409388  0.33237996  1
  Ni  Ni6  1  0.00058791  0.66612054  0.99876511  1
  Ni  Ni7  1  0.16675767  0.82999752  0.16755402  1
  Ni  Ni8  1  0.00032358  0.66653798  0.33346875  1
  Cr  Cr9  1  0.33281464  0.00160295  0.00095123  1
  Ni  Ni10  1  0.50037185  0.16702678  0.16635702  1
  Ni  Ni11  1  0.33426558  0.00079524  0.33149207  1
  Ni  Ni12  1  0.33233557  0.33267716  0.99921969  1
  Cr  Cr13  1  0.49767181  0.50106977  0.16499597  1
  Ni  Ni14  1  0.33427943  0.33256420  0.33351662  1
  Ni  Ni15  1  0.33046866  0.66494140  0.99808823  1
  Cr  Cr16  1  0.50325650  0.83499523  0.16606304  1
  Ni  Ni17  1  0.32933496  0.66615114  0.33336445  1
  Ni  Ni18  1  0.66846427  0.00236084  0.99794119  1
  Ni  Ni19  1  0.83287326  0.16661297  0.16455012  1
  Ni  Ni20  1  0.66760355  0.00345685  0.33401517  1
  Fe  Fe21  1  0.66647510  0.33228501  0.99791381  1
  Cr  Cr22  1  0.83676966  0.50194174  0.16405625  1
  Cr  Cr23  1  0.66714630  0.33266973  0.33567607  1
  Ni  Ni24  1  0.66982184  0.66894706  0.99798532  1
  Ni  Ni25  1  0.83344001  0.83430395  0.16690359  1
  Fe  Fe26  1  0.66816613  0.66814111  0.33422453  1
  Cr  Cr27  1  0.16769097  0.16549970  0.50050820  1
  Fe  Fe28  1  0.99858124  0.99734834  0.66744563  1
  Ni  Ni29  1  0.16657874  0.16943308  0.83078785  1
  Cr  Cr30  1  0.16576344  0.49991702  0.50014047  1
  Fe  Fe31  1  0.99860194  0.33505575  0.66769406  1
  Ni  Ni32  1  0.16410163  0.49890646  0.83408499  1
  Ni  Ni33  1  0.16532150  0.83201430  0.50187668  1
  Ni  Ni34  1  0.00036687  0.66754901  0.66797423  1
  Fe  Fe35  1  0.16666910  0.83205773  0.83245870  1
  Ni  Ni36  1  0.50022429  0.16627603  0.50202244  1
  Ni  Ni37  1  0.33160759  0.00076171  0.66918717  1
  Ni  Ni38  1  0.49889550  0.16476327  0.83244445  1
  Fe  Fe39  1  0.49925676  0.49873985  0.50083391  1
  Fe  Fe40  1  0.33503355  0.33452175  0.66841749  1
  Cr  Cr41  1  0.49948956  0.50140162  0.83472895  1
  Cr  Cr42  1  0.49716566  0.83539153  0.49794592  1
  Ni  Ni43  1  0.32985522  0.66968303  0.66914194  1
  Ni  Ni44  1  0.50113748  0.83547067  0.83432641  1
  Ni  Ni45  1  0.83184170  0.16630750  0.50354115  1
  Fe  Fe46  1  0.66556116  0.99799752  0.66734962  1
  Fe  Fe47  1  0.83258219  0.16692722  0.83246944  1
  Ni  Ni48  1  0.83507581  0.49935663  0.50016731  1
  Ni  Ni49  1  0.66817176  0.32892873  0.66704674  1
  Ni  Ni50  1  0.83679471  0.49995627  0.83429574  1
  Ni  Ni51  1  0.83336003  0.83214643  0.49876705  1
  Cr  Cr52  1  0.66829606  0.66191495  0.66446905  1
  Ni  Ni53  1  0.83209308  0.83192424  0.83322967  1
" 