121,Ni20Fe40Cr40_8,-231.702679583886, 201.120450431233,Ni20Fe40Cr40,"# generated using pymatgen
 data_Cr4(FeNi)7
_symmetry_space_group_name_H-M   'P 1'
_cell_length_a   7.46704761
_cell_length_b   7.46704761
_cell_length_c   10.56000000
_cell_angle_alpha   90.00000000
_cell_angle_beta   90.00000000
_cell_angle_gamma   90.00000000
_symmetry_Int_Tables_number   1
_chemical_formula_structural   Cr4(FeNi)7
_chemical_formula_sum   'Cr12 Fe21 Ni21'
_cell_volume   588.79180800
_cell_formula_units_Z   3
loop_
 _symmetry_equiv_pos_site_id
 _symmetry_equiv_pos_as_xyz
  1  'x, y, z'
loop_
 _atom_site_type_symbol
 _atom_site_label
 _atom_site_symmetry_multiplicity
 _atom_site_fract_x
 _atom_site_fract_y
 _atom_site_fract_z
 _atom_site_occupancy
  Cr  Cr0  1  0.99704889  0.00407421  0.00310133  1
  Fe  Fe1  1  0.16622016  0.16515012  0.16878088  1
  Fe  Fe2  1  0.00060329  0.99801927  0.33450759  1
  Ni  Ni3  1  0.00337442  0.33148745  0.99878406  1
  Cr  Cr4  1  0.16917028  0.49965644  0.16323930  1
  Cr  Cr5  1  0.99879620  0.33078903  0.33473859  1
  Fe  Fe6  1  0.99798972  0.66713165  0.99979333  1
  Fe  Fe7  1  0.16576302  0.83605124  0.16703584  1
  Fe  Fe8  1  0.00026694  0.66790797  0.33610885  1
  Fe  Fe9  1  0.33529592  0.00340740  0.00062958  1
  Cr  Cr10  1  0.49683773  0.16642780  0.17105141  1
  Ni  Ni11  1  0.33300183  0.99794168  0.33611601  1
  Ni  Ni12  1  0.33185481  0.33509340  0.99853404  1
  Fe  Fe13  1  0.50156476  0.50138411  0.16617906  1
  Ni  Ni14  1  0.33089409  0.33232942  0.33524753  1
  Fe  Fe15  1  0.33515201  0.66812282  0.99839897  1
  Ni  Ni16  1  0.49928327  0.83516142  0.16388946  1
  Cr  Cr17  1  0.33395762  0.66839460  0.33330202  1
  Ni  Ni18  1  0.66642674  0.99660383  0.00043255  1
  Ni  Ni19  1  0.83252104  0.16341150  0.16811135  1
  Fe  Fe20  1  0.66626673  0.99791399  0.33471970  1
  Cr  Cr21  1  0.66872875  0.32945138  0.00086691  1
  Cr  Cr22  1  0.83419784  0.50106820  0.16690240  1
  Fe  Fe23  1  0.66629393  0.33110319  0.33486493  1
  Ni  Ni24  1  0.66300050  0.66928505  0.00037012  1
  Ni  Ni25  1  0.83114338  0.83414962  0.16785322  1
  Fe  Fe26  1  0.66699209  0.66974821  0.33320225  1
  Ni  Ni27  1  0.16875229  0.16660355  0.50054579  1
  Fe  Fe28  1  0.99963446  0.00413380  0.66425438  1
  Fe  Fe29  1  0.16733804  0.17166903  0.83164679  1
  Ni  Ni30  1  0.16481791  0.49793044  0.50252998  1
  Ni  Ni31  1  0.00005301  0.33177770  0.66596855  1
  Fe  Fe32  1  0.16612434  0.49857544  0.83267868  1
  Fe  Fe33  1  0.16431192  0.83458520  0.50105363  1
  Fe  Fe34  1  0.99853297  0.66487548  0.66362391  1
  Cr  Cr35  1  0.16818153  0.83798212  0.83223074  1
  Fe  Fe36  1  0.50118279  0.16511922  0.49965759  1
  Fe  Fe37  1  0.33604001  0.00507325  0.66432827  1
  Fe  Fe38  1  0.50174895  0.16659217  0.83192742  1
  Cr  Cr39  1  0.50054814  0.49704437  0.49694635  1
  Ni  Ni40  1  0.33267290  0.33408769  0.66624260  1
  Ni  Ni41  1  0.49775442  0.49798068  0.83501286  1
  Ni  Ni42  1  0.50140643  0.83577788  0.50187954  1
  Cr  Cr43  1  0.33404877  0.66728322  0.66595824  1
  Fe  Fe44  1  0.50264056  0.83438218  0.83312817  1
  Ni  Ni45  1  0.83434943  0.16476388  0.50044217  1
  Ni  Ni46  1  0.66816369  0.99931951  0.66589693  1
  Ni  Ni47  1  0.83404720  0.16588254  0.83196264  1
  Ni  Ni48  1  0.83403251  0.49989965  0.50112946  1
  Ni  Ni49  1  0.66784075  0.32908574  0.66505069  1
  Cr  Cr50  1  0.83243741  0.49788508  0.83156017  1
  Ni  Ni51  1  0.83223068  0.83280085  0.50074879  1
  Fe  Fe52  1  0.66581398  0.66349516  0.66554982  1
  Cr  Cr53  1  0.83264894  0.83412918  0.83128453  1
" 