371,Ni20Fe20Cr60_10,-233.02868000682, 190.371964406757,Ni20Fe20Cr60,"# generated using pymatgen
 data_Cr6Fe5Ni16
_symmetry_space_group_name_H-M   'P 1'
_cell_length_a   7.46704761
_cell_length_b   7.46704761
_cell_length_c   10.56000000
_cell_angle_alpha   90.00000000
_cell_angle_beta   90.00000000
_cell_angle_gamma   90.00000000
_symmetry_Int_Tables_number   1
_chemical_formula_structural   Cr6Fe5Ni16
_chemical_formula_sum   'Cr12 Fe10 Ni32'
_cell_volume   588.79180800
_cell_formula_units_Z   2
loop_
 _symmetry_equiv_pos_site_id
 _symmetry_equiv_pos_as_xyz
  1  'x, y, z'
loop_
 _atom_site_type_symbol
 _atom_site_label
 _atom_site_symmetry_multiplicity
 _atom_site_fract_x
 _atom_site_fract_y
 _atom_site_fract_z
 _atom_site_occupancy
  Ni  Ni0  1  0.99769895  0.99805224  0.00051812  1
  Ni  Ni1  1  0.16477509  0.16654578  0.16729374  1
  Ni  Ni2  1  0.00124735  0.00003138  0.33440776  1
  Fe  Fe3  1  0.99996878  0.33412209  0.99968012  1
  Cr  Cr4  1  0.16720021  0.50217889  0.16629263  1
  Fe  Fe5  1  0.00293789  0.33411439  0.33576974  1
  Ni  Ni6  1  0.99923428  0.67074430  0.00027802  1
  Ni  Ni7  1  0.16654115  0.83488522  0.16795773  1
  Ni  Ni8  1  0.99958376  0.66941584  0.33508002  1
  Cr  Cr9  1  0.33024256  0.00235855  0.00123280  1
  Cr  Cr10  1  0.50003023  0.16387845  0.16992902  1
  Ni  Ni11  1  0.33014606  0.00052435  0.33396464  1
  Ni  Ni12  1  0.33472344  0.33533118  0.00091646  1
  Ni  Ni13  1  0.50031758  0.50063773  0.16731121  1
  Ni  Ni14  1  0.33497351  0.33179860  0.33393952  1
  Ni  Ni15  1  0.33423173  0.66874069  0.00112540  1
  Ni  Ni16  1  0.49830883  0.83122928  0.16839210  1
  Ni  Ni17  1  0.33334272  0.66702848  0.33357554  1
  Fe  Fe18  1  0.66637156  0.99698454  0.99837115  1
  Cr  Cr19  1  0.83559219  0.16471371  0.16897324  1
  Fe  Fe20  1  0.66578358  0.99721395  0.33667271  1
  Cr  Cr21  1  0.66531131  0.33238361  0.99926682  1
  Ni  Ni22  1  0.83525612  0.49853712  0.16783902  1
  Fe  Fe23  1  0.66732719  0.33268762  0.33550389  1
  Cr  Cr24  1  0.66833127  0.66506016  0.99990210  1
  Fe  Fe25  1  0.83537625  0.83178739  0.16842019  1
  Cr  Cr26  1  0.66808634  0.66365189  0.33358622  1
  Ni  Ni27  1  0.16599102  0.16657097  0.49971769  1
  Ni  Ni28  1  0.99979016  0.00174079  0.66541930  1
  Cr  Cr29  1  0.16269504  0.16756104  0.83295287  1
  Fe  Fe30  1  0.16678019  0.49956070  0.49801475  1
  Ni  Ni31  1  0.99804572  0.33116103  0.66471564  1
  Cr  Cr32  1  0.16737754  0.50271575  0.83391359  1
  Ni  Ni33  1  0.16756528  0.83732507  0.49841073  1
  Cr  Cr34  1  0.99903074  0.66873389  0.66346705  1
  Ni  Ni35  1  0.16794986  0.83593860  0.83337457  1
  Fe  Fe36  1  0.50044677  0.16511521  0.49974172  1
  Ni  Ni37  1  0.33321783  0.00277576  0.66498755  1
  Fe  Fe38  1  0.49922734  0.16778081  0.83092609  1
  Ni  Ni39  1  0.49972897  0.49781725  0.49879094  1
  Ni  Ni40  1  0.33507002  0.33148186  0.66488906  1
  Ni  Ni41  1  0.50031962  0.50061199  0.83339520  1
  Ni  Ni42  1  0.49841332  0.83391367  0.49901993  1
  Cr  Cr43  1  0.33412591  0.66865006  0.66415214  1
  Ni  Ni44  1  0.49930754  0.83502650  0.83280506  1
  Ni  Ni45  1  0.83488560  0.16675618  0.50035404  1
  Ni  Ni46  1  0.66677429  0.00183484  0.66665694  1
  Ni  Ni47  1  0.83129805  0.16467805  0.83181885  1
  Ni  Ni48  1  0.83307407  0.49621864  0.49955312  1
  Ni  Ni49  1  0.66616832  0.33114757  0.66569279  1
  Ni  Ni50  1  0.83343315  0.49516955  0.83241960  1
  Ni  Ni51  1  0.83352977  0.83622867  0.49983895  1
  Cr  Cr52  1  0.66773030  0.66477004  0.66647634  1
  Fe  Fe53  1  0.83508366  0.83407813  0.83229558  1
" 