367,Ni20Fe20Cr60_6,-232.681550331731, 183.581904017661,Ni20Fe20Cr60,"# generated using pymatgen
 data_Cr6Fe5Ni16
_symmetry_space_group_name_H-M   'P 1'
_cell_length_a   7.46704761
_cell_length_b   7.46704761
_cell_length_c   10.56000000
_cell_angle_alpha   90.00000000
_cell_angle_beta   90.00000000
_cell_angle_gamma   90.00000000
_symmetry_Int_Tables_number   1
_chemical_formula_structural   Cr6Fe5Ni16
_chemical_formula_sum   'Cr12 Fe10 Ni32'
_cell_volume   588.79180800
_cell_formula_units_Z   2
loop_
 _symmetry_equiv_pos_site_id
 _symmetry_equiv_pos_as_xyz
  1  'x, y, z'
loop_
 _atom_site_type_symbol
 _atom_site_label
 _atom_site_symmetry_multiplicity
 _atom_site_fract_x
 _atom_site_fract_y
 _atom_site_fract_z
 _atom_site_occupancy
  Ni  Ni0  1  0.99562771  0.00085709  0.00137777  1
  Cr  Cr1  1  0.16402371  0.17008213  0.16927240  1
  Fe  Fe2  1  0.99698227  0.99924831  0.33360316  1
  Ni  Ni3  1  0.99807148  0.33479927  0.00008604  1
  Ni  Ni4  1  0.16576789  0.49996138  0.16729561  1
  Ni  Ni5  1  0.99694399  0.33668528  0.33167478  1
  Ni  Ni6  1  0.99914130  0.66375732  0.00072229  1
  Cr  Cr7  1  0.16410029  0.83245313  0.16897837  1
  Ni  Ni8  1  0.99925586  0.66493067  0.33546334  1
  Cr  Cr9  1  0.33524854  0.00131378  0.00160136  1
  Ni  Ni10  1  0.50098174  0.16844864  0.16849037  1
  Ni  Ni11  1  0.33780412  0.99893690  0.33329700  1
  Ni  Ni12  1  0.33294812  0.33490129  0.00060262  1
  Ni  Ni13  1  0.50070717  0.49911407  0.16758389  1
  Ni  Ni14  1  0.33466241  0.33502405  0.33249832  1
  Ni  Ni15  1  0.33142130  0.66371668  0.00411334  1
  Ni  Ni16  1  0.50325917  0.83169722  0.16709607  1
  Ni  Ni17  1  0.33397193  0.66689782  0.33289026  1
  Ni  Ni18  1  0.66821715  0.00199703  0.00164735  1
  Fe  Fe19  1  0.83021531  0.16748497  0.16739263  1
  Ni  Ni20  1  0.66511819  0.00027464  0.33339281  1
  Ni  Ni21  1  0.66802741  0.33088582  0.00185709  1
  Ni  Ni22  1  0.83309095  0.50090948  0.16710397  1
  Ni  Ni23  1  0.66690858  0.33271219  0.33351881  1
  Fe  Fe24  1  0.66796861  0.66494562  0.00491755  1
  Ni  Ni25  1  0.83192738  0.83236142  0.16751945  1
  Ni  Ni26  1  0.66699043  0.66699805  0.33164212  1
  Cr  Cr27  1  0.16662202  0.16848572  0.49569079  1
  Ni  Ni28  1  0.99873929  0.00073866  0.66451730  1
  Ni  Ni29  1  0.16423824  0.16953488  0.83432090  1
  Fe  Fe30  1  0.16904176  0.50081060  0.49694746  1
  Cr  Cr31  1  0.99899517  0.33544601  0.66791453  1
  Fe  Fe32  1  0.16702338  0.49923783  0.83576383  1
  Fe  Fe33  1  0.16896305  0.83361834  0.49794779  1
  Fe  Fe34  1  0.00223315  0.66813060  0.66327792  1
  Cr  Cr35  1  0.16515361  0.83314969  0.83337095  1
  Ni  Ni36  1  0.50149093  0.16760838  0.49905724  1
  Cr  Cr37  1  0.33686511  0.00171285  0.66699653  1
  Ni  Ni38  1  0.50142232  0.16916824  0.83309351  1
  Ni  Ni39  1  0.49841367  0.50049332  0.49679198  1
  Ni  Ni40  1  0.33209434  0.33661971  0.66683435  1
  Cr  Cr41  1  0.49978552  0.49889893  0.83604789  1
  Ni  Ni42  1  0.50116921  0.83164894  0.49798344  1
  Ni  Ni43  1  0.33193887  0.66524554  0.66362929  1
  Cr  Cr44  1  0.50313184  0.83071233  0.83608767  1
  Ni  Ni45  1  0.83320237  0.16518339  0.49726463  1
  Ni  Ni46  1  0.66971969  0.99944522  0.66526501  1
  Ni  Ni47  1  0.83453381  0.16509110  0.83504845  1
  Fe  Fe48  1  0.83147050  0.49829381  0.49540607  1
  Cr  Cr49  1  0.66625961  0.32941261  0.66471688  1
  Fe  Fe50  1  0.83362541  0.49726129  0.83667357  1
  Fe  Fe51  1  0.83207238  0.83549441  0.49712860  1
  Cr  Cr52  1  0.66785535  0.66477937  0.66283547  1
  Cr  Cr53  1  0.83455638  0.83238398  0.83374919  1
" 