240,Ni20Fe40Cr40_7,-231.496024424349, 197.180202997317,Ni20Fe40Cr40,"# generated using pymatgen
 data_Cr4(FeNi)7
_symmetry_space_group_name_H-M   'P 1'
_cell_length_a   7.46704761
_cell_length_b   7.46704761
_cell_length_c   10.56000000
_cell_angle_alpha   90.00000000
_cell_angle_beta   90.00000000
_cell_angle_gamma   90.00000000
_symmetry_Int_Tables_number   1
_chemical_formula_structural   Cr4(FeNi)7
_chemical_formula_sum   'Cr12 Fe21 Ni21'
_cell_volume   588.79180800
_cell_formula_units_Z   3
loop_
 _symmetry_equiv_pos_site_id
 _symmetry_equiv_pos_as_xyz
  1  'x, y, z'
loop_
 _atom_site_type_symbol
 _atom_site_label
 _atom_site_symmetry_multiplicity
 _atom_site_fract_x
 _atom_site_fract_y
 _atom_site_fract_z
 _atom_site_occupancy
  Fe  Fe0  1  0.00221413  0.00262819  0.00041715  1
  Ni  Ni1  1  0.16785229  0.16474889  0.16731978  1
  Cr  Cr2  1  0.99943586  0.00394608  0.33005275  1
  Ni  Ni3  1  0.99763504  0.33520888  0.00088106  1
  Cr  Cr4  1  0.16847593  0.50144820  0.16792060  1
  Ni  Ni5  1  0.00196495  0.33492345  0.33319102  1
  Fe  Fe6  1  0.99992714  0.66908364  0.00029362  1
  Ni  Ni7  1  0.16758387  0.83654396  0.16493813  1
  Cr  Cr8  1  0.99985989  0.66750705  0.33449346  1
  Ni  Ni9  1  0.33545154  0.99686161  0.99797172  1
  Ni  Ni10  1  0.49967013  0.16432715  0.16484697  1
  Ni  Ni11  1  0.33373025  0.99830825  0.33421678  1
  Cr  Cr12  1  0.33201944  0.33151736  0.99996420  1
  Ni  Ni13  1  0.50204302  0.50006931  0.16587937  1
  Ni  Ni14  1  0.33474881  0.33229702  0.33364255  1
  Fe  Fe15  1  0.33241017  0.66923390  0.99902778  1
  Fe  Fe16  1  0.49741889  0.83314657  0.16372261  1
  Ni  Ni17  1  0.33446302  0.66923065  0.33187236  1
  Ni  Ni18  1  0.66698983  0.99800314  0.99820791  1
  Ni  Ni19  1  0.83401858  0.16661119  0.16359659  1
  Cr  Cr20  1  0.66274243  0.99784828  0.33191104  1
  Fe  Fe21  1  0.66724455  0.32932016  0.00175856  1
  Ni  Ni22  1  0.83217398  0.50037153  0.16524780  1
  Cr  Cr23  1  0.66977733  0.33086419  0.32839498  1
  Fe  Fe24  1  0.66548463  0.66691669  0.00075192  1
  Fe  Fe25  1  0.83252053  0.83363075  0.16339112  1
  Fe  Fe26  1  0.66393344  0.66512486  0.33033221  1
  Fe  Fe27  1  0.17112787  0.16799102  0.49745102  1
  Cr  Cr28  1  0.00116811  0.00080711  0.66883511  1
  Fe  Fe29  1  0.16984522  0.16703390  0.83572843  1
  Ni  Ni30  1  0.16703297  0.50126152  0.49869779  1
  Cr  Cr31  1  0.00162691  0.33528847  0.66569078  1
  Ni  Ni32  1  0.16217901  0.50236811  0.83442879  1
  Ni  Ni33  1  0.16502666  0.83420993  0.50041532  1
  Fe  Fe34  1  0.99835965  0.66603165  0.66722694  1
  Ni  Ni35  1  0.16417466  0.83361975  0.83479140  1
  Ni  Ni36  1  0.50211074  0.16538042  0.50293812  1
  Fe  Fe37  1  0.33447475  0.00261307  0.66796237  1
  Ni  Ni38  1  0.50376337  0.16402865  0.83254686  1
  Cr  Cr39  1  0.50032734  0.49683794  0.49875892  1
  Fe  Fe40  1  0.33464855  0.33147300  0.66712577  1
  Cr  Cr41  1  0.49956051  0.49641546  0.83538927  1
  Fe  Fe42  1  0.49455506  0.83350028  0.50131344  1
  Cr  Cr43  1  0.33008446  0.66840829  0.66886891  1
  Ni  Ni44  1  0.50015683  0.83539931  0.83242685  1
  Fe  Fe45  1  0.83389509  0.16921125  0.49956733  1
  Fe  Fe46  1  0.66518170  0.00139118  0.66897773  1
  Fe  Fe47  1  0.83398294  0.16720807  0.83662259  1
  Fe  Fe48  1  0.83370483  0.49800339  0.49939987  1
  Ni  Ni49  1  0.66969806  0.33134945  0.66927586  1
  Fe  Fe50  1  0.83323071  0.50060069  0.83606089  1
  Cr  Cr51  1  0.82959925  0.83328436  0.50198168  1
  Fe  Fe52  1  0.66710777  0.66441022  0.66875649  1
  Fe  Fe53  1  0.83158730  0.83215258  0.83451742  1
" 