352,Ni20Fe60Cr20_1,-227.131873959814, 177.301995313872,Ni20Fe60Cr20,"# generated using pymatgen
 data_Cr6Fe16Ni5
_symmetry_space_group_name_H-M   'P 1'
_cell_length_a   7.46704761
_cell_length_b   7.46704761
_cell_length_c   10.56000000
_cell_angle_alpha   90.00000000
_cell_angle_beta   90.00000000
_cell_angle_gamma   90.00000000
_symmetry_Int_Tables_number   1
_chemical_formula_structural   Cr6Fe16Ni5
_chemical_formula_sum   'Cr12 Fe32 Ni10'
_cell_volume   588.79180800
_cell_formula_units_Z   2
loop_
 _symmetry_equiv_pos_site_id
 _symmetry_equiv_pos_as_xyz
  1  'x, y, z'
loop_
 _atom_site_type_symbol
 _atom_site_label
 _atom_site_symmetry_multiplicity
 _atom_site_fract_x
 _atom_site_fract_y
 _atom_site_fract_z
 _atom_site_occupancy
  Fe  Fe0  1  0.00067824  0.00033685  0.00010280  1
  Fe  Fe1  1  0.16853908  0.16420932  0.16553467  1
  Ni  Ni2  1  0.00273855  0.99683222  0.33070030  1
  Ni  Ni3  1  0.00072610  0.33296010  0.00227354  1
  Ni  Ni4  1  0.16776392  0.49955030  0.16645429  1
  Fe  Fe5  1  0.00167220  0.33341995  0.33071058  1
  Cr  Cr6  1  0.99719969  0.66638438  0.00202390  1
  Fe  Fe7  1  0.16900041  0.83397610  0.16771302  1
  Fe  Fe8  1  0.00159021  0.66438552  0.33094363  1
  Ni  Ni9  1  0.33313816  0.00084253  0.00126363  1
  Fe  Fe10  1  0.49869310  0.16374131  0.16598689  1
  Ni  Ni11  1  0.33497252  0.99808918  0.33170821  1
  Fe  Fe12  1  0.33076169  0.33222375  0.00279600  1
  Fe  Fe13  1  0.50006527  0.50296065  0.16507470  1
  Cr  Cr14  1  0.33558485  0.33170572  0.33131037  1
  Fe  Fe15  1  0.33317597  0.66919226  0.00362384  1
  Ni  Ni16  1  0.50112686  0.83298074  0.16605331  1
  Fe  Fe17  1  0.33375332  0.66734678  0.33031718  1
  Fe  Fe18  1  0.66676106  0.99807501  0.99967922  1
  Cr  Cr19  1  0.83496332  0.16274904  0.16853042  1
  Fe  Fe20  1  0.66473470  0.99820890  0.33094234  1
  Cr  Cr21  1  0.66779866  0.33531747  0.00140367  1
  Fe  Fe22  1  0.83335302  0.50087240  0.16796758  1
  Fe  Fe23  1  0.66828031  0.33462851  0.33122598  1
  Ni  Ni24  1  0.66714426  0.66913778  0.00064926  1
  Fe  Fe25  1  0.83254689  0.83035196  0.16861955  1
  Fe  Fe26  1  0.66467388  0.66664406  0.33058176  1
  Cr  Cr27  1  0.16484275  0.16621487  0.49822863  1
  Fe  Fe28  1  0.00011428  0.99979711  0.66859892  1
  Ni  Ni29  1  0.16359179  0.16710730  0.83564225  1
  Fe  Fe30  1  0.16415460  0.49861424  0.49956001  1
  Ni  Ni31  1  0.99720361  0.33583195  0.66640735  1
  Cr  Cr32  1  0.16635582  0.49960952  0.83385398  1
  Cr  Cr33  1  0.16649039  0.82919475  0.49818622  1
  Ni  Ni34  1  0.99697235  0.66437677  0.66588448  1
  Fe  Fe35  1  0.16663942  0.83478317  0.83333310  1
  Cr  Cr36  1  0.50454461  0.16765294  0.49964491  1
  Cr  Cr37  1  0.33538498  0.00009963  0.66614011  1
  Fe  Fe38  1  0.49689050  0.16763859  0.83475960  1
  Fe  Fe39  1  0.50027963  0.50320833  0.50059941  1
  Fe  Fe40  1  0.33011096  0.33479834  0.66662863  1
  Cr  Cr41  1  0.49737878  0.50390004  0.83631337  1
  Fe  Fe42  1  0.50037433  0.83217878  0.49738981  1
  Fe  Fe43  1  0.33136880  0.66534089  0.66588605  1
  Fe  Fe44  1  0.49862994  0.83627287  0.83688576  1
  Cr  Cr45  1  0.83480236  0.16645499  0.49874805  1
  Fe  Fe46  1  0.67021478  0.00012721  0.66972482  1
  Fe  Fe47  1  0.83546445  0.16856554  0.83383233  1
  Fe  Fe48  1  0.83284329  0.50005275  0.49932422  1
  Fe  Fe49  1  0.66721889  0.33592235  0.66870716  1
  Fe  Fe50  1  0.83396029  0.49977976  0.83320767  1
  Cr  Cr51  1  0.83218349  0.83424561  0.49730829  1
  Fe  Fe52  1  0.66658293  0.66802732  0.66822419  1
  Fe  Fe53  1  0.83396574  0.83308163  0.83279007  1
" 