127,Ni20Fe40Cr40_0,-231.75972629966, 195.217205223446,Ni20Fe40Cr40,"# generated using pymatgen
 data_Cr4(FeNi)7
_symmetry_space_group_name_H-M   'P 1'
_cell_length_a   7.46704761
_cell_length_b   7.46704761
_cell_length_c   10.56000000
_cell_angle_alpha   90.00000000
_cell_angle_beta   90.00000000
_cell_angle_gamma   90.00000000
_symmetry_Int_Tables_number   1
_chemical_formula_structural   Cr4(FeNi)7
_chemical_formula_sum   'Cr12 Fe21 Ni21'
_cell_volume   588.79180800
_cell_formula_units_Z   3
loop_
 _symmetry_equiv_pos_site_id
 _symmetry_equiv_pos_as_xyz
  1  'x, y, z'
loop_
 _atom_site_type_symbol
 _atom_site_label
 _atom_site_symmetry_multiplicity
 _atom_site_fract_x
 _atom_site_fract_y
 _atom_site_fract_z
 _atom_site_occupancy
  Fe  Fe0  1  0.00437170  0.99716639  0.00080045  1
  Fe  Fe1  1  0.17035925  0.16413719  0.16909262  1
  Ni  Ni2  1  0.00147197  0.99727945  0.33299483  1
  Cr  Cr3  1  0.00190679  0.33063173  0.99595553  1
  Cr  Cr4  1  0.16502897  0.49735400  0.16949196  1
  Ni  Ni5  1  0.99947615  0.33135350  0.33807714  1
  Fe  Fe6  1  0.99919732  0.66762737  0.99858602  1
  Ni  Ni7  1  0.16411385  0.83298438  0.16807999  1
  Fe  Fe8  1  0.99925619  0.66585713  0.33634895  1
  Ni  Ni9  1  0.33220838  0.00072256  0.00102810  1
  Ni  Ni10  1  0.49993040  0.16942578  0.16747824  1
  Fe  Fe11  1  0.33174399  0.00269165  0.33554829  1
  Ni  Ni12  1  0.33624578  0.33113456  0.00134841  1
  Ni  Ni13  1  0.50001994  0.49708798  0.16747493  1
  Fe  Fe14  1  0.33296707  0.33215263  0.33487356  1
  Cr  Cr15  1  0.33134149  0.66505222  0.99986980  1
  Cr  Cr16  1  0.49816756  0.83503770  0.17036154  1
  Fe  Fe17  1  0.33098786  0.66552759  0.33581294  1
  Cr  Cr18  1  0.67000099  0.00175337  0.00267342  1
  Cr  Cr19  1  0.83522048  0.16854805  0.16958067  1
  Fe  Fe20  1  0.66800584  0.00275490  0.33584776  1
  Ni  Ni21  1  0.66516746  0.33488265  0.99925322  1
  Cr  Cr22  1  0.83224347  0.50081949  0.16698289  1
  Ni  Ni23  1  0.66465994  0.33450574  0.33431798  1
  Fe  Fe24  1  0.66479210  0.66582015  0.99992705  1
  Fe  Fe25  1  0.83450733  0.83246421  0.16911015  1
  Fe  Fe26  1  0.66636974  0.66600531  0.33505633  1
  Ni  Ni27  1  0.16711891  0.16721032  0.49914123  1
  Cr  Cr28  1  0.00042458  0.99659178  0.66600956  1
  Fe  Fe29  1  0.17126376  0.16178134  0.83262787  1
  Ni  Ni30  1  0.16203504  0.49894941  0.49978905  1
  Fe  Fe31  1  0.99980067  0.33229637  0.66540985  1
  Fe  Fe32  1  0.16606931  0.50011099  0.83140683  1
  Ni  Ni33  1  0.16555122  0.83267045  0.49896692  1
  Ni  Ni34  1  0.99787764  0.66489985  0.66594506  1
  Ni  Ni35  1  0.16387429  0.83244421  0.83288170  1
  Ni  Ni36  1  0.50077448  0.16842985  0.49859555  1
  Ni  Ni37  1  0.33287029  0.00150321  0.66377107  1
  Ni  Ni38  1  0.50080864  0.17159238  0.83446453  1
  Fe  Fe39  1  0.49929154  0.50156174  0.49747351  1
  Cr  Cr40  1  0.33578917  0.33453700  0.66596459  1
  Fe  Fe41  1  0.50205797  0.50144652  0.83406541  1
  Ni  Ni42  1  0.50002706  0.83621088  0.49839994  1
  Cr  Cr43  1  0.33050463  0.66959692  0.66322998  1
  Cr  Cr44  1  0.49947038  0.84038540  0.82949620  1
  Fe  Fe45  1  0.83497959  0.16632663  0.49679896  1
  Cr  Cr46  1  0.66804685  0.00350282  0.66180493  1
  Fe  Fe47  1  0.83215050  0.16473818  0.83261201  1
  Fe  Fe48  1  0.83225233  0.49885528  0.50003724  1
  Ni  Ni49  1  0.66871426  0.33574202  0.66610510  1
  Fe  Fe50  1  0.83154481  0.50034122  0.83176867  1
  Ni  Ni51  1  0.83321946  0.82998097  0.49704795  1
  Fe  Fe52  1  0.66795090  0.66819106  0.66438259  1
  Ni  Ni53  1  0.83576966  0.82932552  0.83583092  1
" 