61,Ni20Fe40Cr40_3,-231.457508487886, 193.346325365727,Ni20Fe40Cr40,"# generated using pymatgen
 data_Cr4(FeNi)7
_symmetry_space_group_name_H-M   'P 1'
_cell_length_a   7.46704761
_cell_length_b   7.46704761
_cell_length_c   10.56000000
_cell_angle_alpha   90.00000000
_cell_angle_beta   90.00000000
_cell_angle_gamma   90.00000000
_symmetry_Int_Tables_number   1
_chemical_formula_structural   Cr4(FeNi)7
_chemical_formula_sum   'Cr12 Fe21 Ni21'
_cell_volume   588.79180800
_cell_formula_units_Z   3
loop_
 _symmetry_equiv_pos_site_id
 _symmetry_equiv_pos_as_xyz
  1  'x, y, z'
loop_
 _atom_site_type_symbol
 _atom_site_label
 _atom_site_symmetry_multiplicity
 _atom_site_fract_x
 _atom_site_fract_y
 _atom_site_fract_z
 _atom_site_occupancy
  Fe  Fe0  1  0.00113268  0.99921464  0.99947768  1
  Fe  Fe1  1  0.16490129  0.16704041  0.16632892  1
  Fe  Fe2  1  0.99779914  0.00131574  0.33417793  1
  Ni  Ni3  1  0.99989526  0.32965657  0.00181145  1
  Ni  Ni4  1  0.16319438  0.49790972  0.16722548  1
  Fe  Fe5  1  0.99839409  0.33268454  0.33273200  1
  Fe  Fe6  1  0.00070939  0.66290156  0.00013909  1
  Fe  Fe7  1  0.16630132  0.83152915  0.16651817  1
  Ni  Ni8  1  0.00235481  0.66805462  0.33091741  1
  Fe  Fe9  1  0.33114751  0.99997351  0.99910734  1
  Cr  Cr10  1  0.49986302  0.16481493  0.16388267  1
  Fe  Fe11  1  0.33169755  0.00090688  0.33170881  1
  Ni  Ni12  1  0.32971382  0.33110114  0.00016141  1
  Cr  Cr13  1  0.50124514  0.49926561  0.16796443  1
  Fe  Fe14  1  0.33192905  0.33278917  0.33353750  1
  Cr  Cr15  1  0.33309127  0.66481407  0.99999839  1
  Ni  Ni16  1  0.49994446  0.83610636  0.16788996  1
  Fe  Fe17  1  0.33393868  0.66589271  0.33132836  1
  Fe  Fe18  1  0.66817231  0.00181482  0.99971330  1
  Fe  Fe19  1  0.83347026  0.16754202  0.16800841  1
  Ni  Ni20  1  0.66677377  0.00050459  0.33233500  1
  Fe  Fe21  1  0.66818977  0.33478858  0.99893266  1
  Ni  Ni22  1  0.83736002  0.49842709  0.16743400  1
  Ni  Ni23  1  0.66578711  0.33124426  0.33331020  1
  Cr  Cr24  1  0.66866599  0.66881980  0.00090969  1
  Fe  Fe25  1  0.83408912  0.83275632  0.16911920  1
  Fe  Fe26  1  0.66982694  0.66661402  0.33190582  1
  Ni  Ni27  1  0.16647968  0.16721488  0.49832250  1
  Cr  Cr28  1  0.99908560  0.00131242  0.66498606  1
  Ni  Ni29  1  0.16619883  0.16482582  0.83425184  1
  Cr  Cr30  1  0.16721118  0.49954882  0.50341207  1
  Ni  Ni31  1  0.00020119  0.33100619  0.66582319  1
  Cr  Cr32  1  0.16433661  0.49691311  0.83058311  1
  Cr  Cr33  1  0.16689938  0.83376340  0.50240354  1
  Ni  Ni34  1  0.99983948  0.66803487  0.67017407  1
  Ni  Ni35  1  0.16821069  0.83573896  0.83324458  1
  Fe  Fe36  1  0.50001287  0.16946698  0.49793669  1
  Fe  Fe37  1  0.33263756  0.00329044  0.66867489  1
  Fe  Fe38  1  0.49743409  0.17006984  0.83545312  1
  Ni  Ni39  1  0.50016720  0.49804576  0.49838419  1
  Ni  Ni40  1  0.33496755  0.33084589  0.66572826  1
  Ni  Ni41  1  0.50213311  0.49925579  0.83351018  1
  Cr  Cr42  1  0.50012404  0.83410442  0.49741498  1
  Fe  Fe43  1  0.33556462  0.66549769  0.66976889  1
  Ni  Ni44  1  0.49948953  0.83777689  0.83488946  1
  Ni  Ni45  1  0.83207459  0.16774622  0.49803613  1
  Cr  Cr46  1  0.66623438  0.00332145  0.66664996  1
  Fe  Fe47  1  0.83406806  0.16905924  0.83371332  1
  Cr  Cr48  1  0.83324853  0.49970877  0.50083500  1
  Ni  Ni49  1  0.66390861  0.33353310  0.66781809  1
  Ni  Ni50  1  0.83322443  0.49637227  0.83326959  1
  Ni  Ni51  1  0.83365037  0.83544712  0.49715361  1
  Cr  Cr52  1  0.66708707  0.66744889  0.66698666  1
  Fe  Fe53  1  0.83592263  0.83216792  0.83400070  1
" 