307,Ni20Fe60Cr20_4,-227.784606872056, 178.570631772189,Ni20Fe60Cr20,"# generated using pymatgen
 data_Cr6Fe16Ni5
_symmetry_space_group_name_H-M   'P 1'
_cell_length_a   7.46704761
_cell_length_b   7.46704761
_cell_length_c   10.56000000
_cell_angle_alpha   90.00000000
_cell_angle_beta   90.00000000
_cell_angle_gamma   90.00000000
_symmetry_Int_Tables_number   1
_chemical_formula_structural   Cr6Fe16Ni5
_chemical_formula_sum   'Cr12 Fe32 Ni10'
_cell_volume   588.79180800
_cell_formula_units_Z   2
loop_
 _symmetry_equiv_pos_site_id
 _symmetry_equiv_pos_as_xyz
  1  'x, y, z'
loop_
 _atom_site_type_symbol
 _atom_site_label
 _atom_site_symmetry_multiplicity
 _atom_site_fract_x
 _atom_site_fract_y
 _atom_site_fract_z
 _atom_site_occupancy
  Cr  Cr0  1  0.99939639  0.99730587  0.00082371  1
  Fe  Fe1  1  0.16608948  0.16793897  0.16558917  1
  Ni  Ni2  1  0.99637931  0.00021411  0.33199194  1
  Cr  Cr3  1  0.00324809  0.33072062  0.00113187  1
  Fe  Fe4  1  0.16745107  0.49917905  0.16687423  1
  Fe  Fe5  1  0.99976079  0.33142914  0.33213014  1
  Fe  Fe6  1  0.00154964  0.66519647  0.00252662  1
  Fe  Fe7  1  0.16368326  0.83091434  0.16721791  1
  Fe  Fe8  1  0.00056675  0.66458800  0.33172032  1
  Fe  Fe9  1  0.33370797  0.00101936  0.99970046  1
  Fe  Fe10  1  0.50179422  0.16941871  0.16488243  1
  Cr  Cr11  1  0.32972300  0.00176998  0.32841650  1
  Ni  Ni12  1  0.33589610  0.33195979  0.99865538  1
  Fe  Fe13  1  0.50461482  0.49944668  0.16620297  1
  Cr  Cr14  1  0.33472645  0.33717352  0.33351288  1
  Cr  Cr15  1  0.33697088  0.66559567  0.00196820  1
  Fe  Fe16  1  0.50394065  0.83265342  0.16667424  1
  Fe  Fe17  1  0.33533495  0.66875717  0.33049827  1
  Fe  Fe18  1  0.66222435  0.99915631  0.00081914  1
  Fe  Fe19  1  0.83096603  0.16572563  0.16782899  1
  Fe  Fe20  1  0.66605361  0.99913447  0.33267685  1
  Fe  Fe21  1  0.66429122  0.33575530  0.00199636  1
  Ni  Ni22  1  0.83410077  0.49828051  0.16674069  1
  Fe  Fe23  1  0.67042688  0.33251632  0.33393242  1
  Ni  Ni24  1  0.66812282  0.66785500  0.00073577  1
  Fe  Fe25  1  0.83216784  0.83019676  0.16786415  1
  Fe  Fe26  1  0.66821343  0.66544316  0.33296010  1
  Fe  Fe27  1  0.16364161  0.16758215  0.50066027  1
  Cr  Cr28  1  0.99726946  0.99870318  0.66666128  1
  Ni  Ni29  1  0.16779734  0.16506989  0.83263703  1
  Fe  Fe30  1  0.16830405  0.50037145  0.50057648  1
  Fe  Fe31  1  0.00193891  0.33419403  0.66621785  1
  Fe  Fe32  1  0.17107223  0.49959602  0.83319769  1
  Cr  Cr33  1  0.16929661  0.83302483  0.49799900  1
  Fe  Fe34  1  0.00305986  0.66507719  0.66649465  1
  Ni  Ni35  1  0.16862765  0.83173126  0.83504861  1
  Cr  Cr36  1  0.49785648  0.16372623  0.50262513  1
  Ni  Ni37  1  0.32979871  0.99927936  0.66936190  1
  Fe  Fe38  1  0.49452386  0.16590592  0.83310268  1
  Fe  Fe39  1  0.50103674  0.50439670  0.49858142  1
  Fe  Fe40  1  0.33023235  0.33366402  0.66831367  1
  Fe  Fe41  1  0.49925590  0.50137134  0.83495300  1
  Ni  Ni42  1  0.49898691  0.83402174  0.49814411  1
  Fe  Fe43  1  0.33469427  0.66904147  0.66787820  1
  Ni  Ni44  1  0.49801183  0.83578578  0.83388844  1
  Fe  Fe45  1  0.83272990  0.16520361  0.49864151  1
  Fe  Fe46  1  0.66171981  0.99894307  0.66714189  1
  Cr  Cr47  1  0.82776960  0.16927593  0.83368584  1
  Ni  Ni48  1  0.83762357  0.49809324  0.49735727  1
  Cr  Cr49  1  0.66501907  0.33805164  0.66603811  1
  Cr  Cr50  1  0.83665120  0.50266057  0.83707803  1
  Fe  Fe51  1  0.83156992  0.83201305  0.49655702  1
  Cr  Cr52  1  0.66760566  0.66978707  0.66579378  1
  Fe  Fe53  1  0.83250576  0.83408495  0.83529340  1
" 