180,Ni20Fe60Cr20_7,-227.086954061287, 178.160635238256,Ni20Fe60Cr20,"# generated using pymatgen
 data_Cr6Fe16Ni5
_symmetry_space_group_name_H-M   'P 1'
_cell_length_a   7.46704761
_cell_length_b   7.46704761
_cell_length_c   10.56000000
_cell_angle_alpha   90.00000000
_cell_angle_beta   90.00000000
_cell_angle_gamma   90.00000000
_symmetry_Int_Tables_number   1
_chemical_formula_structural   Cr6Fe16Ni5
_chemical_formula_sum   'Cr12 Fe32 Ni10'
_cell_volume   588.79180800
_cell_formula_units_Z   2
loop_
 _symmetry_equiv_pos_site_id
 _symmetry_equiv_pos_as_xyz
  1  'x, y, z'
loop_
 _atom_site_type_symbol
 _atom_site_label
 _atom_site_symmetry_multiplicity
 _atom_site_fract_x
 _atom_site_fract_y
 _atom_site_fract_z
 _atom_site_occupancy
  Ni  Ni0  1  0.00280164  0.00241409  0.00114242  1
  Fe  Fe1  1  0.16616251  0.16591093  0.16869378  1
  Fe  Fe2  1  0.99744467  0.00114544  0.33226261  1
  Fe  Fe3  1  0.99876480  0.33482746  0.00192384  1
  Cr  Cr4  1  0.16508823  0.49988308  0.16905150  1
  Ni  Ni5  1  0.99722190  0.33008283  0.33404348  1
  Fe  Fe6  1  0.99860516  0.66861457  0.99928145  1
  Fe  Fe7  1  0.16847517  0.83921718  0.16742753  1
  Cr  Cr8  1  0.99873248  0.66386332  0.33321748  1
  Fe  Fe9  1  0.33378950  0.00161722  0.00141740  1
  Ni  Ni10  1  0.49966521  0.16784006  0.16726192  1
  Fe  Fe11  1  0.33653035  0.00223891  0.33184785  1
  Fe  Fe12  1  0.33129555  0.33180174  0.00257170  1
  Fe  Fe13  1  0.50414986  0.49916374  0.16704477  1
  Fe  Fe14  1  0.33543454  0.33376263  0.33302044  1
  Cr  Cr15  1  0.33405122  0.66950216  0.00256190  1
  Fe  Fe16  1  0.50360643  0.83576421  0.16674894  1
  Cr  Cr17  1  0.33700250  0.66822359  0.33189934  1
  Fe  Fe18  1  0.66753577  0.99628270  0.00063037  1
  Fe  Fe19  1  0.83252912  0.16701776  0.16642977  1
  Fe  Fe20  1  0.66622433  0.00076999  0.33389023  1
  Fe  Fe21  1  0.66666034  0.33211042  0.00224449  1
  Fe  Fe22  1  0.82903371  0.49655761  0.16810160  1
  Fe  Fe23  1  0.66666545  0.33467059  0.33468316  1
  Ni  Ni24  1  0.66795246  0.66408530  0.99927365  1
  Cr  Cr25  1  0.83501421  0.83107502  0.16729687  1
  Ni  Ni26  1  0.66512387  0.66620879  0.33508621  1
  Cr  Cr27  1  0.16814740  0.16575386  0.49878184  1
  Ni  Ni28  1  0.00132864  0.99945367  0.66566393  1
  Fe  Fe29  1  0.16463542  0.16577748  0.83242965  1
  Fe  Fe30  1  0.16644488  0.49804278  0.49929007  1
  Fe  Fe31  1  0.00145432  0.33283548  0.66467123  1
  Fe  Fe32  1  0.16328884  0.49979231  0.83353536  1
  Cr  Cr33  1  0.16422726  0.83407196  0.49779870  1
  Fe  Fe34  1  0.99893803  0.66731383  0.66594202  1
  Fe  Fe35  1  0.16625932  0.83589886  0.83274514  1
  Fe  Fe36  1  0.49997549  0.16704857  0.49824745  1
  Ni  Ni37  1  0.33174499  0.99756908  0.66803496  1
  Cr  Cr38  1  0.49620787  0.16631470  0.83392391  1
  Ni  Ni39  1  0.50061699  0.50011071  0.49893111  1
  Fe  Fe40  1  0.33179222  0.33217699  0.66504635  1
  Cr  Cr41  1  0.49850567  0.49913297  0.83406763  1
  Fe  Fe42  1  0.50016538  0.83235631  0.50021639  1
  Fe  Fe43  1  0.33265611  0.66700335  0.66552652  1
  Fe  Fe44  1  0.50301999  0.83279451  0.83352148  1
  Fe  Fe45  1  0.83442050  0.16737903  0.49825393  1
  Cr  Cr46  1  0.66687705  0.99977708  0.66488066  1
  Cr  Cr47  1  0.83412479  0.16438378  0.83515985  1
  Ni  Ni48  1  0.83168721  0.50157368  0.49948281  1
  Cr  Cr49  1  0.66853231  0.33489521  0.66355271  1
  Fe  Fe50  1  0.83418805  0.50174719  0.83299160  1
  Fe  Fe51  1  0.83065632  0.83215999  0.49969524  1
  Fe  Fe52  1  0.66717954  0.66840560  0.66569070  1
  Ni  Ni53  1  0.83736438  0.83157967  0.83286405  1
" 