187,Ni20Fe20Cr60_13,-232.896341658198, 185.405418358295,Ni20Fe20Cr60,"# generated using pymatgen
 data_Cr6Fe5Ni16
_symmetry_space_group_name_H-M   'P 1'
_cell_length_a   7.46704761
_cell_length_b   7.46704761
_cell_length_c   10.56000000
_cell_angle_alpha   90.00000000
_cell_angle_beta   90.00000000
_cell_angle_gamma   90.00000000
_symmetry_Int_Tables_number   1
_chemical_formula_structural   Cr6Fe5Ni16
_chemical_formula_sum   'Cr12 Fe10 Ni32'
_cell_volume   588.79180800
_cell_formula_units_Z   2
loop_
 _symmetry_equiv_pos_site_id
 _symmetry_equiv_pos_as_xyz
  1  'x, y, z'
loop_
 _atom_site_type_symbol
 _atom_site_label
 _atom_site_symmetry_multiplicity
 _atom_site_fract_x
 _atom_site_fract_y
 _atom_site_fract_z
 _atom_site_occupancy
  Fe  Fe0  1  0.00277224  0.00020679  0.99851491  1
  Ni  Ni1  1  0.16830223  0.16530858  0.16553028  1
  Fe  Fe2  1  0.00322548  0.99977323  0.33412079  1
  Cr  Cr3  1  0.99971874  0.33203715  0.99868309  1
  Ni  Ni4  1  0.16793729  0.50169976  0.16735708  1
  Cr  Cr5  1  0.00019151  0.33330002  0.33331563  1
  Cr  Cr6  1  0.00169123  0.66710332  0.99626194  1
  Ni  Ni7  1  0.16977606  0.83390445  0.16606906  1
  Ni  Ni8  1  0.00228577  0.66823573  0.33429426  1
  Ni  Ni9  1  0.33670913  0.99950353  0.99934581  1
  Ni  Ni10  1  0.50032633  0.16546464  0.16310379  1
  Cr  Cr11  1  0.33956670  0.00127043  0.33353838  1
  Ni  Ni12  1  0.33288759  0.33296704  0.00165982  1
  Ni  Ni13  1  0.49318789  0.50081970  0.16487514  1
  Ni  Ni14  1  0.33079503  0.33640248  0.33140446  1
  Ni  Ni15  1  0.33399522  0.66764902  0.00037489  1
  Ni  Ni16  1  0.50044724  0.83292515  0.16656945  1
  Ni  Ni17  1  0.33077909  0.66656198  0.33260066  1
  Ni  Ni18  1  0.66606750  0.00051099  0.99938616  1
  Ni  Ni19  1  0.83326002  0.16250727  0.16521355  1
  Ni  Ni20  1  0.67124046  0.99704514  0.33384503  1
  Fe  Fe21  1  0.66175194  0.33280510  0.99909596  1
  Cr  Cr22  1  0.82899054  0.50107437  0.16464139  1
  Cr  Cr23  1  0.66179067  0.32753672  0.32785855  1
  Ni  Ni24  1  0.66180549  0.66964089  0.99826022  1
  Cr  Cr25  1  0.83596226  0.83439808  0.16718814  1
  Fe  Fe26  1  0.66241079  0.66614177  0.33389632  1
  Fe  Fe27  1  0.16766199  0.16882751  0.50055418  1
  Cr  Cr28  1  0.00243042  0.99980318  0.66761691  1
  Fe  Fe29  1  0.17208477  0.16691721  0.83438772  1
  Ni  Ni30  1  0.16781607  0.50160555  0.50001488  1
  Fe  Fe31  1  0.99971036  0.33163883  0.66857766  1
  Ni  Ni32  1  0.16893057  0.49951964  0.83331946  1
  Ni  Ni33  1  0.16665119  0.83340642  0.49869771  1
  Cr  Cr34  1  0.99917412  0.66525488  0.67066598  1
  Ni  Ni35  1  0.16983243  0.83463610  0.83581740  1
  Cr  Cr36  1  0.50223378  0.16876842  0.50426668  1
  Ni  Ni37  1  0.33546611  0.00261936  0.66772099  1
  Ni  Ni38  1  0.50184017  0.16684216  0.83354363  1
  Ni  Ni39  1  0.49607416  0.49939525  0.49968511  1
  Ni  Ni40  1  0.33263882  0.33391628  0.66739473  1
  Ni  Ni41  1  0.49789495  0.49987481  0.83434721  1
  Fe  Fe42  1  0.50287884  0.83178827  0.50050448  1
  Cr  Cr43  1  0.33376344  0.66915818  0.66666746  1
  Ni  Ni44  1  0.49968467  0.83520871  0.83218142  1
  Ni  Ni45  1  0.83341439  0.16289251  0.50079324  1
  Ni  Ni46  1  0.66764050  0.99966404  0.66684483  1
  Ni  Ni47  1  0.83130852  0.16563306  0.83352786  1
  Cr  Cr48  1  0.83000103  0.49861407  0.50191740  1
  Ni  Ni49  1  0.66606713  0.33285692  0.67043628  1
  Fe  Fe50  1  0.82779858  0.49932407  0.83368305  1
  Ni  Ni51  1  0.83487750  0.83392347  0.49951881  1
  Ni  Ni52  1  0.66537127  0.66660797  0.66678050  1
  Fe  Fe53  1  0.82887979  0.83450974  0.83352969  1
" 