318,Ni20Fe40Cr40_1,-232.093998995659, 203.36010524471,Ni20Fe40Cr40,"# generated using pymatgen
 data_Cr4(FeNi)7
_symmetry_space_group_name_H-M   'P 1'
_cell_length_a   7.46704761
_cell_length_b   7.46704761
_cell_length_c   10.56000000
_cell_angle_alpha   90.00000000
_cell_angle_beta   90.00000000
_cell_angle_gamma   90.00000000
_symmetry_Int_Tables_number   1
_chemical_formula_structural   Cr4(FeNi)7
_chemical_formula_sum   'Cr12 Fe21 Ni21'
_cell_volume   588.79180800
_cell_formula_units_Z   3
loop_
 _symmetry_equiv_pos_site_id
 _symmetry_equiv_pos_as_xyz
  1  'x, y, z'
loop_
 _atom_site_type_symbol
 _atom_site_label
 _atom_site_symmetry_multiplicity
 _atom_site_fract_x
 _atom_site_fract_y
 _atom_site_fract_z
 _atom_site_occupancy
  Fe  Fe0  1  0.00067422  0.99949047  0.99789987  1
  Ni  Ni1  1  0.16907447  0.16645230  0.16735403  1
  Fe  Fe2  1  0.00196216  0.00327936  0.33380290  1
  Cr  Cr3  1  0.00229111  0.33449102  0.00076772  1
  Ni  Ni4  1  0.16703894  0.49981310  0.16494061  1
  Fe  Fe5  1  0.00071331  0.33218003  0.33258233  1
  Fe  Fe6  1  0.99940442  0.66629946  0.00022701  1
  Cr  Cr7  1  0.16809488  0.83350371  0.16476164  1
  Cr  Cr8  1  0.99856458  0.66261029  0.33152540  1
  Cr  Cr9  1  0.33448821  0.00073266  0.99536404  1
  Ni  Ni10  1  0.49888788  0.16395525  0.16465445  1
  Ni  Ni11  1  0.33422112  0.00063725  0.33476941  1
  Fe  Fe12  1  0.33559278  0.33441339  0.99923279  1
  Fe  Fe13  1  0.49896869  0.49893549  0.16486366  1
  Cr  Cr14  1  0.33220859  0.33219039  0.33213684  1
  Ni  Ni15  1  0.33394165  0.66509048  0.99938006  1
  Fe  Fe16  1  0.50059393  0.83281082  0.16559312  1
  Fe  Fe17  1  0.33355022  0.66489399  0.33336904  1
  Ni  Ni18  1  0.66617462  0.99899779  0.00006943  1
  Cr  Cr19  1  0.83207256  0.16635435  0.16411947  1
  Fe  Fe20  1  0.66456515  0.00149807  0.33267313  1
  Fe  Fe21  1  0.66400986  0.33500141  0.99832177  1
  Ni  Ni22  1  0.83196476  0.50245436  0.16507008  1
  Cr  Cr23  1  0.66758478  0.33408044  0.33490087  1
  Ni  Ni24  1  0.66538570  0.66686363  0.00075881  1
  Fe  Fe25  1  0.83171862  0.83332702  0.16504801  1
  Fe  Fe26  1  0.66338615  0.66522849  0.33149372  1
  Fe  Fe27  1  0.16774242  0.16937569  0.50182005  1
  Fe  Fe28  1  0.00208597  0.00384693  0.66857060  1
  Ni  Ni29  1  0.16887568  0.16890700  0.83168446  1
  Ni  Ni30  1  0.16585435  0.49838832  0.50067592  1
  Fe  Fe31  1  0.00091484  0.33516823  0.66833645  1
  Ni  Ni32  1  0.16640473  0.50106960  0.83436907  1
  Cr  Cr33  1  0.16749706  0.83338078  0.50436542  1
  Fe  Fe34  1  0.99928835  0.66135770  0.66747236  1
  Fe  Fe35  1  0.16843041  0.83168700  0.83121251  1
  Ni  Ni36  1  0.50053751  0.16798844  0.50169306  1
  Fe  Fe37  1  0.33495445  0.00321735  0.66922774  1
  Ni  Ni38  1  0.50084511  0.16806726  0.83364331  1
  Ni  Ni39  1  0.49923668  0.49842375  0.50282271  1
  Ni  Ni40  1  0.33346236  0.33532873  0.66783641  1
  Fe  Fe41  1  0.49880233  0.50069414  0.83250750  1
  Cr  Cr42  1  0.49842634  0.83187435  0.49948630  1
  Ni  Ni43  1  0.33048699  0.66444184  0.66771378  1
  Ni  Ni44  1  0.49956730  0.83262208  0.83281058  1
  Ni  Ni45  1  0.83534385  0.16911289  0.50141689  1
  Cr  Cr46  1  0.66691248  0.00273202  0.66706432  1
  Fe  Fe47  1  0.83354340  0.16878900  0.83414426  1
  Ni  Ni48  1  0.83307729  0.49762123  0.50206518  1
  Ni  Ni49  1  0.66790497  0.33402350  0.66827436  1
  Ni  Ni50  1  0.83295383  0.50001073  0.83352250  1
  Cr  Cr51  1  0.83260243  0.83266064  0.49861683  1
  Fe  Fe52  1  0.66381686  0.66247114  0.66816588  1
  Cr  Cr53  1  0.83329868  0.83115463  0.83480131  1
" 