15,Ni20Fe60Cr20_10,-227.427865893216, 177.808884487222,Ni20Fe60Cr20,"# generated using pymatgen
 data_Cr6Fe16Ni5
_symmetry_space_group_name_H-M   'P 1'
_cell_length_a   7.46704761
_cell_length_b   7.46704761
_cell_length_c   10.56000000
_cell_angle_alpha   90.00000000
_cell_angle_beta   90.00000000
_cell_angle_gamma   90.00000000
_symmetry_Int_Tables_number   1
_chemical_formula_structural   Cr6Fe16Ni5
_chemical_formula_sum   'Cr12 Fe32 Ni10'
_cell_volume   588.79180800
_cell_formula_units_Z   2
loop_
 _symmetry_equiv_pos_site_id
 _symmetry_equiv_pos_as_xyz
  1  'x, y, z'
loop_
 _atom_site_type_symbol
 _atom_site_label
 _atom_site_symmetry_multiplicity
 _atom_site_fract_x
 _atom_site_fract_y
 _atom_site_fract_z
 _atom_site_occupancy
  Fe  Fe0  1  0.00066279  0.00068422  0.99852190  1
  Fe  Fe1  1  0.16752522  0.16325563  0.16445977  1
  Cr  Cr2  1  0.99817957  0.99802783  0.33561209  1
  Fe  Fe3  1  0.00152668  0.33245442  0.00069428  1
  Fe  Fe4  1  0.16803586  0.50275073  0.16839325  1
  Cr  Cr5  1  0.99982741  0.33108659  0.33056995  1
  Fe  Fe6  1  0.99956052  0.66381885  0.99886119  1
  Fe  Fe7  1  0.16869415  0.83285921  0.16593654  1
  Fe  Fe8  1  0.00084267  0.66511439  0.33455454  1
  Fe  Fe9  1  0.33380728  0.00291983  0.99937199  1
  Ni  Ni10  1  0.49900625  0.16527219  0.16768921  1
  Cr  Cr11  1  0.33385692  0.99640267  0.33449729  1
  Cr  Cr12  1  0.33333909  0.33583146  0.00085971  1
  Fe  Fe13  1  0.49972978  0.50241883  0.16624289  1
  Fe  Fe14  1  0.33370050  0.33389413  0.33336731  1
  Cr  Cr15  1  0.33370862  0.67040728  0.99766596  1
  Ni  Ni16  1  0.50032176  0.83530625  0.16505609  1
  Ni  Ni17  1  0.33194887  0.66550561  0.33330071  1
  Fe  Fe18  1  0.66403688  0.99937112  0.00014655  1
  Fe  Fe19  1  0.83051538  0.16331601  0.16529038  1
  Ni  Ni20  1  0.66635827  0.00033108  0.33358217  1
  Cr  Cr21  1  0.66845920  0.33281247  0.99921485  1
  Fe  Fe22  1  0.83232723  0.49951929  0.16504295  1
  Cr  Cr23  1  0.66620457  0.33215913  0.33402813  1
  Fe  Fe24  1  0.66664511  0.66738155  0.99721414  1
  Cr  Cr25  1  0.83258785  0.83136394  0.16618084  1
  Cr  Cr26  1  0.66297532  0.66785774  0.33429833  1
  Fe  Fe27  1  0.16729224  0.16574039  0.50236930  1
  Fe  Fe28  1  0.00222460  0.99915259  0.66649352  1
  Ni  Ni29  1  0.16481816  0.16618823  0.83258239  1
  Ni  Ni30  1  0.16399845  0.49850092  0.49877997  1
  Fe  Fe31  1  0.99827277  0.33316582  0.66594904  1
  Fe  Fe32  1  0.16457643  0.49868572  0.83261772  1
  Fe  Fe33  1  0.16773256  0.82914481  0.50117186  1
  Fe  Fe34  1  0.99757678  0.66485399  0.66642747  1
  Fe  Fe35  1  0.16462292  0.83633757  0.83319166  1
  Fe  Fe36  1  0.50025952  0.16730006  0.49972474  1
  Fe  Fe37  1  0.33465501  0.00122574  0.66670742  1
  Fe  Fe38  1  0.49937198  0.16820790  0.83327252  1
  Fe  Fe39  1  0.49863455  0.50289512  0.50237983  1
  Cr  Cr40  1  0.33382464  0.33471126  0.66675281  1
  Ni  Ni41  1  0.50324217  0.50184252  0.83184808  1
  Ni  Ni42  1  0.50182638  0.83418407  0.50103609  1
  Cr  Cr43  1  0.33258543  0.66910706  0.66886628  1
  Fe  Fe44  1  0.50124880  0.83648650  0.83315379  1
  Fe  Fe45  1  0.83331980  0.16719161  0.50138811  1
  Cr  Cr46  1  0.66924981  0.00108999  0.66598337  1
  Fe  Fe47  1  0.83524824  0.16764804  0.83255103  1
  Fe  Fe48  1  0.83245017  0.50102081  0.50261370  1
  Ni  Ni49  1  0.66856399  0.33475221  0.66691906  1
  Fe  Fe50  1  0.83470869  0.49910541  0.83167753  1
  Fe  Fe51  1  0.83320204  0.83048917  0.50133372  1
  Ni  Ni52  1  0.66758274  0.66634329  0.66923470  1
  Fe  Fe53  1  0.83452737  0.83250671  0.83432127  1
" 