134,Ni20Fe60Cr20_12,-227.729169171128, 183.840224523617,Ni20Fe60Cr20,"# generated using pymatgen
 data_Cr6Fe16Ni5
_symmetry_space_group_name_H-M   'P 1'
_cell_length_a   7.46704761
_cell_length_b   7.46704761
_cell_length_c   10.56000000
_cell_angle_alpha   90.00000000
_cell_angle_beta   90.00000000
_cell_angle_gamma   90.00000000
_symmetry_Int_Tables_number   1
_chemical_formula_structural   Cr6Fe16Ni5
_chemical_formula_sum   'Cr12 Fe32 Ni10'
_cell_volume   588.79180800
_cell_formula_units_Z   2
loop_
 _symmetry_equiv_pos_site_id
 _symmetry_equiv_pos_as_xyz
  1  'x, y, z'
loop_
 _atom_site_type_symbol
 _atom_site_label
 _atom_site_symmetry_multiplicity
 _atom_site_fract_x
 _atom_site_fract_y
 _atom_site_fract_z
 _atom_site_occupancy
  Cr  Cr0  1  0.00286938  0.00173903  0.99833124  1
  Fe  Fe1  1  0.16843737  0.16656734  0.16773736  1
  Fe  Fe2  1  0.99993366  0.99988346  0.33252575  1
  Ni  Ni3  1  0.00012357  0.33373620  0.00057156  1
  Cr  Cr4  1  0.16561901  0.50024147  0.16627212  1
  Fe  Fe5  1  0.99685106  0.33284167  0.33145663  1
  Ni  Ni6  1  0.00185278  0.66500211  0.00048941  1
  Fe  Fe7  1  0.17027950  0.83578841  0.16624313  1
  Fe  Fe8  1  0.99905290  0.66708972  0.33323842  1
  Fe  Fe9  1  0.33348474  0.00233233  0.99899798  1
  Ni  Ni10  1  0.49984658  0.16697473  0.16798657  1
  Fe  Fe11  1  0.33499847  0.99984896  0.33223656  1
  Fe  Fe12  1  0.33286502  0.33087549  0.99855164  1
  Ni  Ni13  1  0.49924193  0.49902451  0.16438605  1
  Fe  Fe14  1  0.33587171  0.33374110  0.33211950  1
  Cr  Cr15  1  0.33423915  0.66736016  0.99773771  1
  Ni  Ni16  1  0.49991672  0.83404462  0.16628129  1
  Fe  Fe17  1  0.33536083  0.66826019  0.33165897  1
  Cr  Cr18  1  0.66419570  0.00241591  0.99811828  1
  Ni  Ni19  1  0.83319539  0.16772914  0.16622625  1
  Fe  Fe20  1  0.66588804  0.00039625  0.33085344  1
  Fe  Fe21  1  0.66559938  0.33322173  0.00129742  1
  Fe  Fe22  1  0.82950947  0.49775272  0.16454247  1
  Fe  Fe23  1  0.66542955  0.33321545  0.33139480  1
  Fe  Fe24  1  0.66728687  0.66554149  0.00097974  1
  Cr  Cr25  1  0.83463206  0.83283939  0.16426130  1
  Fe  Fe26  1  0.66468391  0.66525463  0.33134225  1
  Cr  Cr27  1  0.16575250  0.16811569  0.50008953  1
  Ni  Ni28  1  0.99907921  0.99833679  0.66819439  1
  Fe  Fe29  1  0.16722258  0.16854269  0.83269709  1
  Cr  Cr30  1  0.16720246  0.50087078  0.50169004  1
  Fe  Fe31  1  0.99994499  0.33100116  0.66983949  1
  Ni  Ni32  1  0.16667625  0.49995753  0.83250083  1
  Fe  Fe33  1  0.16657773  0.83483637  0.49939108  1
  Cr  Cr34  1  0.99982903  0.66709558  0.66609199  1
  Ni  Ni35  1  0.16574780  0.83274977  0.83376973  1
  Fe  Fe36  1  0.49976579  0.16671089  0.49988386  1
  Cr  Cr37  1  0.33399031  0.99959834  0.66780208  1
  Ni  Ni38  1  0.50115872  0.16708218  0.83216922  1
  Cr  Cr39  1  0.49912838  0.50091792  0.50392598  1
  Fe  Fe40  1  0.33258959  0.33332511  0.67032414  1
  Fe  Fe41  1  0.49841710  0.49828796  0.83273845  1
  Fe  Fe42  1  0.50119594  0.83535029  0.49791997  1
  Fe  Fe43  1  0.33342462  0.66837492  0.67031972  1
  Fe  Fe44  1  0.50005039  0.83221248  0.83360562  1
  Cr  Cr45  1  0.83113861  0.16323707  0.50261707  1
  Fe  Fe46  1  0.66830005  0.99773047  0.66978457  1
  Fe  Fe47  1  0.83548122  0.16707469  0.83267781  1
  Fe  Fe48  1  0.83211612  0.49852103  0.49942917  1
  Fe  Fe49  1  0.66692910  0.33149774  0.66909603  1
  Cr  Cr50  1  0.83373304  0.50052409  0.83695324  1
  Fe  Fe51  1  0.83250624  0.83111998  0.49860031  1
  Fe  Fe52  1  0.66611735  0.66979194  0.66779745  1
  Fe  Fe53  1  0.83466013  0.83341836  0.83425335  1
" 