223,Ni20Fe60Cr20_8,-227.56381730854, 186.416241271048,Ni20Fe60Cr20,"# generated using pymatgen
 data_Cr6Fe16Ni5
_symmetry_space_group_name_H-M   'P 1'
_cell_length_a   7.46704761
_cell_length_b   7.46704761
_cell_length_c   10.56000000
_cell_angle_alpha   90.00000000
_cell_angle_beta   90.00000000
_cell_angle_gamma   90.00000000
_symmetry_Int_Tables_number   1
_chemical_formula_structural   Cr6Fe16Ni5
_chemical_formula_sum   'Cr12 Fe32 Ni10'
_cell_volume   588.79180800
_cell_formula_units_Z   2
loop_
 _symmetry_equiv_pos_site_id
 _symmetry_equiv_pos_as_xyz
  1  'x, y, z'
loop_
 _atom_site_type_symbol
 _atom_site_label
 _atom_site_symmetry_multiplicity
 _atom_site_fract_x
 _atom_site_fract_y
 _atom_site_fract_z
 _atom_site_occupancy
  Cr  Cr0  1  0.00377650  0.00066408  0.00006044  1
  Fe  Fe1  1  0.17046908  0.16983272  0.16613290  1
  Cr  Cr2  1  0.00375119  0.00130190  0.33245518  1
  Ni  Ni3  1  0.00034237  0.33522463  0.00029059  1
  Ni  Ni4  1  0.16548773  0.49771286  0.16483472  1
  Fe  Fe5  1  0.00019774  0.33337655  0.33201915  1
  Fe  Fe6  1  0.00270198  0.66579625  0.99896412  1
  Fe  Fe7  1  0.16994954  0.83125580  0.16399310  1
  Cr  Cr8  1  0.99843100  0.66589186  0.32871845  1
  Ni  Ni9  1  0.33444692  0.00237011  0.00024339  1
  Fe  Fe10  1  0.49874603  0.16831764  0.16623511  1
  Fe  Fe11  1  0.33390358  0.00101397  0.33455775  1
  Fe  Fe12  1  0.33117955  0.33266772  0.99953445  1
  Cr  Cr13  1  0.49686316  0.49828965  0.16817979  1
  Ni  Ni14  1  0.33359537  0.33144226  0.33429668  1
  Fe  Fe15  1  0.33031593  0.66691412  0.99801194  1
  Cr  Cr16  1  0.50053223  0.83455525  0.16594187  1
  Fe  Fe17  1  0.33082341  0.66622658  0.33350623  1
  Fe  Fe18  1  0.66701911  0.00138538  0.99920280  1
  Fe  Fe19  1  0.83330524  0.17006261  0.16485315  1
  Cr  Cr20  1  0.66777949  0.00139082  0.33391252  1
  Fe  Fe21  1  0.66603522  0.33022785  0.99789842  1
  Fe  Fe22  1  0.83357561  0.49635964  0.16515867  1
  Fe  Fe23  1  0.66804509  0.33235948  0.33615300  1
  Cr  Cr24  1  0.66897716  0.66354370  0.99649328  1
  Fe  Fe25  1  0.83454721  0.83227708  0.16360278  1
  Cr  Cr26  1  0.66672357  0.66312972  0.33661334  1
  Ni  Ni27  1  0.16724918  0.16734914  0.49925409  1
  Fe  Fe28  1  0.00048134  0.00114973  0.66831718  1
  Ni  Ni29  1  0.16846533  0.16887552  0.83415605  1
  Cr  Cr30  1  0.16688274  0.49844138  0.50063640  1
  Fe  Fe31  1  0.00215941  0.33233329  0.66726453  1
  Fe  Fe32  1  0.16540509  0.50002048  0.83447468  1
  Fe  Fe33  1  0.16527713  0.83219118  0.50148407  1
  Fe  Fe34  1  0.99955192  0.66573556  0.66931621  1
  Ni  Ni35  1  0.16623648  0.83310401  0.83344740  1
  Fe  Fe36  1  0.50055816  0.17011920  0.50070791  1
  Cr  Cr37  1  0.32932693  0.00156202  0.66541319  1
  Fe  Fe38  1  0.49846477  0.16646965  0.83310890  1
  Fe  Fe39  1  0.49973512  0.49784083  0.50148185  1
  Fe  Fe40  1  0.33451562  0.33329036  0.66704780  1
  Fe  Fe41  1  0.49843717  0.49828647  0.83210611  1
  Fe  Fe42  1  0.49574741  0.83174088  0.50078489  1
  Fe  Fe43  1  0.33394181  0.66544543  0.66934279  1
  Fe  Fe44  1  0.49794999  0.83640355  0.83440078  1
  Fe  Fe45  1  0.83592973  0.17072018  0.50306006  1
  Fe  Fe46  1  0.66361455  0.00191224  0.66707233  1
  Cr  Cr47  1  0.83328574  0.16585419  0.83046744  1
  Ni  Ni48  1  0.83275362  0.49869982  0.50188007  1
  Ni  Ni49  1  0.66703813  0.33691776  0.66547158  1
  Fe  Fe50  1  0.83688474  0.49938557  0.83070897  1
  Cr  Cr51  1  0.83180169  0.83439083  0.50542123  1
  Fe  Fe52  1  0.66447533  0.66562979  0.66900313  1
  Ni  Ni53  1  0.83230986  0.83254074  0.83230654  1
" 