459,Ni40Fe40Cr20_7,-222.00387346697, 184.635772047738,Ni40Fe40Cr20,"# generated using pymatgen
 data_Cr23Fe21Ni10
_symmetry_space_group_name_H-M   'P 1'
_cell_length_a   7.46704761
_cell_length_b   7.46704761
_cell_length_c   10.56000000
_cell_angle_alpha   90.00000000
_cell_angle_beta   90.00000000
_cell_angle_gamma   90.00000000
_symmetry_Int_Tables_number   1
_chemical_formula_structural   Cr23Fe21Ni10
_chemical_formula_sum   'Cr23 Fe21 Ni10'
_cell_volume   588.79180800
_cell_formula_units_Z   1
loop_
 _symmetry_equiv_pos_site_id
 _symmetry_equiv_pos_as_xyz
  1  'x, y, z'
loop_
 _atom_site_type_symbol
 _atom_site_label
 _atom_site_symmetry_multiplicity
 _atom_site_fract_x
 _atom_site_fract_y
 _atom_site_fract_z
 _atom_site_occupancy
  Cr  Cr0  1  0.99820173  0.99883426  0.99890738  1
  Cr  Cr1  1  0.16785895  0.16821908  0.16804563  1
  Cr  Cr2  1  0.99470170  0.00065849  0.33605694  1
  Fe  Fe3  1  0.99846890  0.33683951  0.00088636  1
  Fe  Fe4  1  0.16676690  0.50247075  0.16546690  1
  Ni  Ni5  1  0.00085869  0.33775279  0.33257485  1
  Fe  Fe6  1  0.99972116  0.66403065  0.00139063  1
  Cr  Cr7  1  0.16794505  0.83534719  0.16537847  1
  Cr  Cr8  1  0.00344139  0.66611079  0.33194128  1
  Fe  Fe9  1  0.33563378  0.99805040  0.00008093  1
  Fe  Fe10  1  0.49984153  0.16475441  0.16669542  1
  Fe  Fe11  1  0.33389080  0.99951857  0.33072803  1
  Cr  Cr12  1  0.33211303  0.33799997  0.00000651  1
  Cr  Cr13  1  0.50548002  0.49873541  0.16787753  1
  Fe  Fe14  1  0.33223192  0.33744593  0.33241772  1
  Fe  Fe15  1  0.33476327  0.66841322  0.99841153  1
  Ni  Ni16  1  0.50012731  0.82971782  0.16575729  1
  Fe  Fe17  1  0.33655600  0.66312645  0.33290576  1
  Cr  Cr18  1  0.66656505  0.99935885  0.00185396  1
  Cr  Cr19  1  0.83407624  0.17194838  0.16630328  1
  Cr  Cr20  1  0.66620424  0.99808040  0.33078422  1
  Ni  Ni21  1  0.66782541  0.33457235  0.00094814  1
  Fe  Fe22  1  0.83502894  0.50191717  0.16597604  1
  Ni  Ni23  1  0.66595968  0.33310304  0.33311267  1
  Ni  Ni24  1  0.66682161  0.66666234  0.00230339  1
  Ni  Ni25  1  0.83198227  0.82937142  0.16690276  1
  Fe  Fe26  1  0.66936430  0.66467260  0.33164671  1
  Cr  Cr27  1  0.16485630  0.16752545  0.49863242  1
  Fe  Fe28  1  0.00018773  0.99908575  0.66693989  1
  Cr  Cr29  1  0.16580110  0.16542066  0.83377673  1
  Fe  Fe30  1  0.16766813  0.49948055  0.50028586  1
  Fe  Fe31  1  0.99956750  0.33465172  0.66627631  1
  Ni  Ni32  1  0.16376891  0.50091359  0.83366927  1
  Cr  Cr33  1  0.16631874  0.83525729  0.49950847  1
  Fe  Fe34  1  0.99947497  0.66666224  0.66691072  1
  Ni  Ni35  1  0.16473147  0.83134738  0.83586350  1
  Cr  Cr36  1  0.49589498  0.16909799  0.49615806  1
  Cr  Cr37  1  0.33548772  0.99666426  0.67049096  1
  Cr  Cr38  1  0.50151248  0.16887024  0.83649487  1
  Ni  Ni39  1  0.50029570  0.49725699  0.49982248  1
  Fe  Fe40  1  0.33200935  0.33304076  0.66679520  1
  Cr  Cr41  1  0.50287905  0.50060204  0.83137857  1
  Cr  Cr42  1  0.50254488  0.82783963  0.49731334  1
  Cr  Cr43  1  0.33036243  0.66214132  0.66845468  1
  Fe  Fe44  1  0.49812536  0.83094226  0.83664784  1
  Fe  Fe45  1  0.83123189  0.16938205  0.49917828  1
  Cr  Cr46  1  0.66979035  0.00204409  0.66659238  1
  Fe  Fe47  1  0.83473729  0.16944474  0.83360766  1
  Cr  Cr48  1  0.82988859  0.50218982  0.49923221  1
  Fe  Fe49  1  0.66570714  0.33407830  0.66501688  1
  Cr  Cr50  1  0.83128434  0.49938959  0.83616735  1
  Ni  Ni51  1  0.83454116  0.83209185  0.50144007  1
  Fe  Fe52  1  0.66587162  0.66691157  0.66575331  1
  Cr  Cr53  1  0.83303096  0.82995568  0.83223236  1
" 