350,Ni40Fe40Cr20_11,-221.961452072369, 179.427220045478,Ni40Fe40Cr20,"# generated using pymatgen
 data_Cr23Fe21Ni10
_symmetry_space_group_name_H-M   'P 1'
_cell_length_a   7.46704761
_cell_length_b   7.46704761
_cell_length_c   10.56000000
_cell_angle_alpha   90.00000000
_cell_angle_beta   90.00000000
_cell_angle_gamma   90.00000000
_symmetry_Int_Tables_number   1
_chemical_formula_structural   Cr23Fe21Ni10
_chemical_formula_sum   'Cr23 Fe21 Ni10'
_cell_volume   588.79180800
_cell_formula_units_Z   1
loop_
 _symmetry_equiv_pos_site_id
 _symmetry_equiv_pos_as_xyz
  1  'x, y, z'
loop_
 _atom_site_type_symbol
 _atom_site_label
 _atom_site_symmetry_multiplicity
 _atom_site_fract_x
 _atom_site_fract_y
 _atom_site_fract_z
 _atom_site_occupancy
  Cr  Cr0  1  0.99688149  0.00188348  0.00027484  1
  Cr  Cr1  1  0.17153509  0.16712092  0.16732006  1
  Ni  Ni2  1  0.99861897  0.99989065  0.33445811  1
  Cr  Cr3  1  0.99621651  0.33440820  0.00123507  1
  Fe  Fe4  1  0.17167366  0.49856829  0.16367211  1
  Cr  Cr5  1  0.00123148  0.33064346  0.33430589  1
  Fe  Fe6  1  0.99966371  0.66606224  0.00285693  1
  Cr  Cr7  1  0.16550245  0.83533210  0.16308984  1
  Cr  Cr8  1  0.00303021  0.66551849  0.32727630  1
  Ni  Ni9  1  0.33652112  0.00137776  0.99737064  1
  Ni  Ni10  1  0.50054187  0.17001813  0.16487427  1
  Fe  Fe11  1  0.33257900  0.00163499  0.33272710  1
  Fe  Fe12  1  0.33782885  0.33389278  0.00034814  1
  Ni  Ni13  1  0.50034223  0.49695470  0.16747385  1
  Fe  Fe14  1  0.33627674  0.33030179  0.33205304  1
  Fe  Fe15  1  0.33446977  0.66720022  0.00101550  1
  Cr  Cr16  1  0.50165109  0.83737174  0.16791949  1
  Cr  Cr17  1  0.33690872  0.66469075  0.33270036  1
  Fe  Fe18  1  0.66354698  0.00347923  0.99942169  1
  Cr  Cr19  1  0.82998303  0.16277784  0.16922393  1
  Ni  Ni20  1  0.66423973  0.00182009  0.33105135  1
  Fe  Fe21  1  0.66417766  0.33028087  0.00036852  1
  Fe  Fe22  1  0.82997506  0.49726523  0.16786791  1
  Ni  Ni23  1  0.66504464  0.33245156  0.33184837  1
  Cr  Cr24  1  0.66568268  0.66374049  0.00368266  1
  Fe  Fe25  1  0.83117653  0.83337820  0.16803202  1
  Fe  Fe26  1  0.66908809  0.66537934  0.33004807  1
  Ni  Ni27  1  0.16673179  0.16117495  0.49897705  1
  Cr  Cr28  1  0.99911064  0.00197969  0.66395128  1
  Cr  Cr29  1  0.16634053  0.16744134  0.83336855  1
  Cr  Cr30  1  0.16889102  0.49585373  0.49975119  1
  Ni  Ni31  1  0.99870181  0.33062884  0.66592177  1
  Cr  Cr32  1  0.16722210  0.50219088  0.83687029  1
  Fe  Fe33  1  0.16784183  0.83410162  0.49751906  1
  Cr  Cr34  1  0.00076615  0.66706281  0.66893498  1
  Fe  Fe35  1  0.16772035  0.83558540  0.83697380  1
  Cr  Cr36  1  0.49871558  0.16662112  0.49780372  1
  Fe  Fe37  1  0.33185097  0.99996157  0.66757623  1
  Fe  Fe38  1  0.50112494  0.16794407  0.83580077  1
  Cr  Cr39  1  0.50514190  0.50204755  0.49933000  1
  Cr  Cr40  1  0.33407261  0.33339034  0.66703254  1
  Fe  Fe41  1  0.50401986  0.49962578  0.83448857  1
  Fe  Fe42  1  0.49887851  0.83558118  0.49805456  1
  Cr  Cr43  1  0.33677620  0.67175582  0.66814087  1
  Fe  Fe44  1  0.49847684  0.83428116  0.83633796  1
  Fe  Fe45  1  0.83209028  0.16758149  0.49847808  1
  Cr  Cr46  1  0.66321899  0.99956737  0.66889274  1
  Ni  Ni47  1  0.82983265  0.16820671  0.83087443  1
  Cr  Cr48  1  0.83317084  0.50080614  0.50337411  1
  Fe  Fe49  1  0.66848758  0.33418255  0.66807209  1
  Fe  Fe50  1  0.83088763  0.49659850  0.83157568  1
  Cr  Cr51  1  0.82995143  0.83287072  0.49441976  1
  Ni  Ni52  1  0.66382410  0.66774236  0.66738119  1
  Cr  Cr53  1  0.83176549  0.83177278  0.83758272  1
" 