189,Ni40Fe20Cr40_7,-223.548973761293, 172.232477673977,Ni40Fe20Cr40,"# generated using pymatgen
 data_Cr23Fe10Ni21
_symmetry_space_group_name_H-M   'P 1'
_cell_length_a   7.46704761
_cell_length_b   7.46704761
_cell_length_c   10.56000000
_cell_angle_alpha   90.00000000
_cell_angle_beta   90.00000000
_cell_angle_gamma   90.00000000
_symmetry_Int_Tables_number   1
_chemical_formula_structural   Cr23Fe10Ni21
_chemical_formula_sum   'Cr23 Fe10 Ni21'
_cell_volume   588.79180800
_cell_formula_units_Z   1
loop_
 _symmetry_equiv_pos_site_id
 _symmetry_equiv_pos_as_xyz
  1  'x, y, z'
loop_
 _atom_site_type_symbol
 _atom_site_label
 _atom_site_symmetry_multiplicity
 _atom_site_fract_x
 _atom_site_fract_y
 _atom_site_fract_z
 _atom_site_occupancy
  Fe  Fe0  1  0.99757333  0.00300625  0.99992066  1
  Cr  Cr1  1  0.16270333  0.16401930  0.16792117  1
  Ni  Ni2  1  0.99721431  0.99753346  0.33253011  1
  Ni  Ni3  1  0.99814118  0.33270870  0.99881893  1
  Cr  Cr4  1  0.16821639  0.50250230  0.16694028  1
  Cr  Cr5  1  0.99882745  0.33239791  0.33408458  1
  Fe  Fe6  1  0.99756577  0.66652787  0.00042035  1
  Cr  Cr7  1  0.16416068  0.83153886  0.16598582  1
  Ni  Ni8  1  0.99761633  0.67017761  0.33406056  1
  Cr  Cr9  1  0.33572890  0.99835642  0.00245230  1
  Ni  Ni10  1  0.50390063  0.16272996  0.16927142  1
  Ni  Ni11  1  0.33347920  0.99662233  0.33361661  1
  Cr  Cr12  1  0.33430086  0.33172588  0.00292314  1
  Ni  Ni13  1  0.50125630  0.50420121  0.16613176  1
  Cr  Cr14  1  0.33523989  0.32913218  0.33028953  1
  Ni  Ni15  1  0.33708556  0.66650901  0.00105114  1
  Ni  Ni16  1  0.50187007  0.83230086  0.16828615  1
  Ni  Ni17  1  0.33412906  0.66955837  0.33125471  1
  Ni  Ni18  1  0.66872184  0.99881186  0.00325332  1
  Ni  Ni19  1  0.83145169  0.16240573  0.16467539  1
  Ni  Ni20  1  0.66468089  0.99767160  0.33204974  1
  Cr  Cr21  1  0.66820425  0.33362095  0.00230976  1
  Cr  Cr22  1  0.83412572  0.50221538  0.16821883  1
  Cr  Cr23  1  0.66736576  0.33181321  0.32983792  1
  Ni  Ni24  1  0.66606771  0.66854118  0.00221529  1
  Fe  Fe25  1  0.83018117  0.83537219  0.16779975  1
  Fe  Fe26  1  0.66609362  0.67041343  0.33294512  1
  Ni  Ni27  1  0.16495328  0.16463189  0.50063733  1
  Ni  Ni28  1  0.99723572  0.00438990  0.66766402  1
  Ni  Ni29  1  0.16220485  0.16870703  0.83183681  1
  Cr  Cr30  1  0.16916198  0.49833859  0.49844582  1
  Ni  Ni31  1  0.00172496  0.33258371  0.66738749  1
  Cr  Cr32  1  0.17097139  0.49917986  0.83460274  1
  Cr  Cr33  1  0.16311876  0.83342186  0.49884209  1
  Cr  Cr34  1  0.99937149  0.66720681  0.66577593  1
  Cr  Cr35  1  0.16508298  0.83414762  0.83544264  1
  Fe  Fe36  1  0.49867322  0.16287451  0.49849612  1
  Cr  Cr37  1  0.33104686  0.99763290  0.66449561  1
  Cr  Cr38  1  0.50265938  0.16609884  0.83165193  1
  Cr  Cr39  1  0.50064503  0.50001612  0.49836564  1
  Fe  Fe40  1  0.33320891  0.33154638  0.66649457  1
  Ni  Ni41  1  0.50230719  0.50060641  0.83506427  1
  Fe  Fe42  1  0.49920116  0.83479547  0.49760391  1
  Ni  Ni43  1  0.33566930  0.66420742  0.66746422  1
  Cr  Cr44  1  0.50167615  0.83024510  0.83281441  1
  Cr  Cr45  1  0.83284641  0.16368055  0.50059778  1
  Ni  Ni46  1  0.66657032  0.00133566  0.66427996  1
  Fe  Fe47  1  0.83531854  0.16875553  0.83414860  1
  Fe  Fe48  1  0.83614000  0.50208640  0.49798557  1
  Cr  Cr49  1  0.67108068  0.33569890  0.66788231  1
  Fe  Fe50  1  0.83479843  0.50140555  0.83590809  1
  Ni  Ni51  1  0.82997379  0.83613958  0.49703773  1
  Cr  Cr52  1  0.66766284  0.66851919  0.66421003  1
  Cr  Cr53  1  0.83079449  0.83933418  0.83560003  1
" 