68,Ni40Fe40Cr20_5,-222.07297380586, 184.102465168334,Ni40Fe40Cr20,"# generated using pymatgen
 data_Cr23Fe21Ni10
_symmetry_space_group_name_H-M   'P 1'
_cell_length_a   7.46704761
_cell_length_b   7.46704761
_cell_length_c   10.56000000
_cell_angle_alpha   90.00000000
_cell_angle_beta   90.00000000
_cell_angle_gamma   90.00000000
_symmetry_Int_Tables_number   1
_chemical_formula_structural   Cr23Fe21Ni10
_chemical_formula_sum   'Cr23 Fe21 Ni10'
_cell_volume   588.79180800
_cell_formula_units_Z   1
loop_
 _symmetry_equiv_pos_site_id
 _symmetry_equiv_pos_as_xyz
  1  'x, y, z'
loop_
 _atom_site_type_symbol
 _atom_site_label
 _atom_site_symmetry_multiplicity
 _atom_site_fract_x
 _atom_site_fract_y
 _atom_site_fract_z
 _atom_site_occupancy
  Cr  Cr0  1  0.99853225  0.99918400  0.99789560  1
  Cr  Cr1  1  0.16407314  0.16798049  0.16469877  1
  Cr  Cr2  1  0.99877976  0.99861964  0.33469246  1
  Cr  Cr3  1  0.99878522  0.33769090  0.99900608  1
  Cr  Cr4  1  0.16962273  0.49870210  0.16584883  1
  Ni  Ni5  1  0.99840350  0.33476591  0.33231716  1
  Ni  Ni6  1  0.00141108  0.66686072  0.99865033  1
  Fe  Fe7  1  0.16791039  0.83291079  0.16406458  1
  Cr  Cr8  1  0.00269007  0.66619123  0.33222270  1
  Fe  Fe9  1  0.33399192  0.00207135  0.00009167  1
  Fe  Fe10  1  0.49851931  0.16690586  0.16811787  1
  Fe  Fe11  1  0.33218604  0.00097624  0.33383954  1
  Ni  Ni12  1  0.33483392  0.33518087  0.99850061  1
  Ni  Ni13  1  0.49925899  0.50030454  0.16835854  1
  Ni  Ni14  1  0.33616203  0.33335609  0.33288517  1
  Fe  Fe15  1  0.33426231  0.66453113  0.00085737  1
  Cr  Cr16  1  0.50012060  0.83169903  0.16512746  1
  Fe  Fe17  1  0.33501336  0.66664398  0.33215374  1
  Ni  Ni18  1  0.66409710  0.99882684  0.00044878  1
  Ni  Ni19  1  0.83165884  0.16576934  0.16990491  1
  Ni  Ni20  1  0.66276155  0.00244898  0.33351614  1
  Cr  Cr21  1  0.66394552  0.33173853  0.00634886  1
  Fe  Fe22  1  0.83289940  0.49978557  0.16780023  1
  Fe  Fe23  1  0.66758799  0.33350472  0.33164248  1
  Fe  Fe24  1  0.66906128  0.66265755  0.00117594  1
  Cr  Cr25  1  0.83189606  0.83520833  0.16264389  1
  Fe  Fe26  1  0.66822507  0.66482486  0.33156870  1
  Cr  Cr27  1  0.16239040  0.16918337  0.50024960  1
  Cr  Cr28  1  0.00071087  0.99720609  0.66734985  1
  Fe  Fe29  1  0.16954818  0.16965190  0.83414055  1
  Cr  Cr30  1  0.16797054  0.49871035  0.50088313  1
  Cr  Cr31  1  0.99641366  0.33636461  0.66982161  1
  Fe  Fe32  1  0.16708832  0.50077731  0.83413023  1
  Fe  Fe33  1  0.16836509  0.83030434  0.50105118  1
  Ni  Ni34  1  0.00133055  0.66465837  0.66875642  1
  Cr  Cr35  1  0.16835729  0.83241330  0.83440014  1
  Fe  Fe36  1  0.49936477  0.16838933  0.49750726  1
  Cr  Cr37  1  0.33498796  0.00024283  0.66458015  1
  Cr  Cr38  1  0.49964138  0.16811330  0.83417409  1
  Cr  Cr39  1  0.50096412  0.50018865  0.50018718  1
  Fe  Fe40  1  0.33282069  0.33370376  0.66730110  1
  Cr  Cr41  1  0.49912398  0.50011238  0.83151389  1
  Cr  Cr42  1  0.50183150  0.83046825  0.49918055  1
  Fe  Fe43  1  0.33275130  0.66547108  0.66701329  1
  Cr  Cr44  1  0.50513576  0.83011057  0.83544907  1
  Fe  Fe45  1  0.82869642  0.17116400  0.49755744  1
  Cr  Cr46  1  0.66595508  0.00267651  0.66646666  1
  Cr  Cr47  1  0.83258670  0.16580531  0.83363243  1
  Fe  Fe48  1  0.83420102  0.49970900  0.49966129  1
  Ni  Ni49  1  0.66426537  0.33589192  0.66272736  1
  Fe  Fe50  1  0.83090649  0.50312992  0.83349820  1
  Cr  Cr51  1  0.83297766  0.83355666  0.50257621  1
  Fe  Fe52  1  0.67166318  0.66407983  0.66723639  1
  Fe  Fe53  1  0.83326231  0.82857746  0.83457630  1
" 