230,Ni40Fe40Cr20_10,-221.701415624734, 178.397547307893,Ni40Fe40Cr20,"# generated using pymatgen
 data_Cr23Fe21Ni10
_symmetry_space_group_name_H-M   'P 1'
_cell_length_a   7.46704761
_cell_length_b   7.46704761
_cell_length_c   10.56000000
_cell_angle_alpha   90.00000000
_cell_angle_beta   90.00000000
_cell_angle_gamma   90.00000000
_symmetry_Int_Tables_number   1
_chemical_formula_structural   Cr23Fe21Ni10
_chemical_formula_sum   'Cr23 Fe21 Ni10'
_cell_volume   588.79180800
_cell_formula_units_Z   1
loop_
 _symmetry_equiv_pos_site_id
 _symmetry_equiv_pos_as_xyz
  1  'x, y, z'
loop_
 _atom_site_type_symbol
 _atom_site_label
 _atom_site_symmetry_multiplicity
 _atom_site_fract_x
 _atom_site_fract_y
 _atom_site_fract_z
 _atom_site_occupancy
  Fe  Fe0  1  0.99675403  0.00249072  0.00213366  1
  Cr  Cr1  1  0.16640186  0.16882920  0.16604316  1
  Cr  Cr2  1  0.99934087  0.99496449  0.33164928  1
  Fe  Fe3  1  0.99734520  0.33152327  0.00038072  1
  Cr  Cr4  1  0.16927722  0.50130281  0.16502140  1
  Fe  Fe5  1  0.99947608  0.33345720  0.33192982  1
  Fe  Fe6  1  0.99598063  0.66812457  0.00182598  1
  Fe  Fe7  1  0.16374146  0.83184123  0.16254083  1
  Fe  Fe8  1  0.00196733  0.66362456  0.33229087  1
  Ni  Ni9  1  0.33037706  0.99522075  0.99872141  1
  Cr  Cr10  1  0.50330030  0.16711201  0.16993032  1
  Cr  Cr11  1  0.33109776  0.99778872  0.33251224  1
  Cr  Cr12  1  0.34181829  0.32856664  0.99570911  1
  Cr  Cr13  1  0.50141378  0.49978473  0.16922956  1
  Ni  Ni14  1  0.33486647  0.33351538  0.33655698  1
  Fe  Fe15  1  0.33806289  0.66658478  0.99845183  1
  Cr  Cr16  1  0.49802975  0.83146424  0.16619751  1
  Fe  Fe17  1  0.33396219  0.66564713  0.33613744  1
  Cr  Cr18  1  0.66426478  0.00365014  0.00339388  1
  Ni  Ni19  1  0.83424871  0.16812433  0.16809114  1
  Fe  Fe20  1  0.66797178  0.99978113  0.33212034  1
  Ni  Ni21  1  0.67276203  0.33724407  0.99969405  1
  Ni  Ni22  1  0.83726368  0.49849304  0.16574860  1
  Ni  Ni23  1  0.66983681  0.33614379  0.33130713  1
  Fe  Fe24  1  0.66645344  0.66620694  0.00024825  1
  Fe  Fe25  1  0.83444224  0.83170194  0.16508873  1
  Cr  Cr26  1  0.67129249  0.66683249  0.33375553  1
  Fe  Fe27  1  0.16742558  0.16411972  0.49942790  1
  Fe  Fe28  1  0.99703137  0.00141369  0.66486060  1
  Cr  Cr29  1  0.16099506  0.16486293  0.83271245  1
  Cr  Cr30  1  0.16609289  0.49680965  0.49743685  1
  Cr  Cr31  1  0.99758083  0.33496661  0.66815150  1
  Cr  Cr32  1  0.16667142  0.50016254  0.83778237  1
  Fe  Fe33  1  0.16560955  0.83280094  0.49966211  1
  Cr  Cr34  1  0.99323564  0.66818980  0.66443616  1
  Cr  Cr35  1  0.16441727  0.83181680  0.83617799  1
  Cr  Cr36  1  0.50352998  0.16543257  0.49647673  1
  Cr  Cr37  1  0.33274576  0.99780714  0.66735937  1
  Fe  Fe38  1  0.50329998  0.16332424  0.83461595  1
  Fe  Fe39  1  0.50270984  0.49998915  0.49847467  1
  Cr  Cr40  1  0.33652322  0.33049167  0.66841674  1
  Ni  Ni41  1  0.50393635  0.50436782  0.83414225  1
  Ni  Ni42  1  0.50129539  0.83189810  0.50006938  1
  Cr  Cr43  1  0.33321015  0.66547279  0.66590334  1
  Ni  Ni44  1  0.50034243  0.83165889  0.83330876  1
  Cr  Cr45  1  0.83407478  0.16734032  0.49846252  1
  Fe  Fe46  1  0.66554750  0.00115631  0.66667937  1
  Ni  Ni47  1  0.83059042  0.16912451  0.83472649  1
  Fe  Fe48  1  0.83062212  0.50091767  0.49767278  1
  Cr  Cr49  1  0.66719571  0.33900694  0.67100157  1
  Fe  Fe50  1  0.83197385  0.50375632  0.83758291  1
  Fe  Fe51  1  0.83042367  0.83437741  0.50059997  1
  Fe  Fe52  1  0.66273087  0.66989694  0.66534963  1
  Cr  Cr53  1  0.82843921  0.83881826  0.83179987  1
" 