385,Ni40Fe40Cr20_13,-222.288780665299, 180.500512065799,Ni40Fe40Cr20,"# generated using pymatgen
 data_Cr23Fe21Ni10
_symmetry_space_group_name_H-M   'P 1'
_cell_length_a   7.46704761
_cell_length_b   7.46704761
_cell_length_c   10.56000000
_cell_angle_alpha   90.00000000
_cell_angle_beta   90.00000000
_cell_angle_gamma   90.00000000
_symmetry_Int_Tables_number   1
_chemical_formula_structural   Cr23Fe21Ni10
_chemical_formula_sum   'Cr23 Fe21 Ni10'
_cell_volume   588.79180800
_cell_formula_units_Z   1
loop_
 _symmetry_equiv_pos_site_id
 _symmetry_equiv_pos_as_xyz
  1  'x, y, z'
loop_
 _atom_site_type_symbol
 _atom_site_label
 _atom_site_symmetry_multiplicity
 _atom_site_fract_x
 _atom_site_fract_y
 _atom_site_fract_z
 _atom_site_occupancy
  Cr  Cr0  1  0.99923387  0.00013256  0.00389557  1
  Cr  Cr1  1  0.16839708  0.16838205  0.16680998  1
  Fe  Fe2  1  0.00140592  0.99668977  0.33143997  1
  Cr  Cr3  1  0.99536115  0.33110531  0.99818955  1
  Cr  Cr4  1  0.16639542  0.50063372  0.16027546  1
  Ni  Ni5  1  0.99951635  0.33084071  0.33299965  1
  Cr  Cr6  1  0.99746511  0.66884574  0.00189600  1
  Ni  Ni7  1  0.16769431  0.83363132  0.16701931  1
  Fe  Fe8  1  0.99948676  0.66365943  0.33092977  1
  Ni  Ni9  1  0.33540065  0.99792416  0.00195670  1
  Cr  Cr10  1  0.50152483  0.16710200  0.16426781  1
  Fe  Fe11  1  0.33101784  0.00069082  0.33098154  1
  Ni  Ni12  1  0.33754460  0.33232123  0.99824132  1
  Cr  Cr13  1  0.50063313  0.49980542  0.16661078  1
  Fe  Fe14  1  0.33281644  0.33516214  0.33274414  1
  Ni  Ni15  1  0.33609439  0.67061249  0.00036581  1
  Ni  Ni16  1  0.50124566  0.83450326  0.16399578  1
  Cr  Cr17  1  0.33637884  0.67081339  0.33098776  1
  Fe  Fe18  1  0.66561287  0.00036490  0.99995768  1
  Fe  Fe19  1  0.83307718  0.16711937  0.16855712  1
  Cr  Cr20  1  0.66416308  0.99773805  0.32964119  1
  Ni  Ni21  1  0.66715639  0.33187733  0.00012698  1
  Fe  Fe22  1  0.83233281  0.49821817  0.16973022  1
  Fe  Fe23  1  0.66806417  0.33606881  0.33291574  1
  Cr  Cr24  1  0.66473807  0.66642095  0.00040063  1
  Fe  Fe25  1  0.83274659  0.83101157  0.16956710  1
  Ni  Ni26  1  0.66770793  0.66445951  0.33365076  1
  Fe  Fe27  1  0.16581439  0.16673299  0.49685908  1
  Cr  Cr28  1  0.00161763  0.00165861  0.66432330  1
  Cr  Cr29  1  0.17014806  0.16733015  0.83480974  1
  Cr  Cr30  1  0.16741044  0.50047302  0.50092854  1
  Cr  Cr31  1  0.99916493  0.33157219  0.66922197  1
  Cr  Cr32  1  0.16856364  0.50186183  0.83868521  1
  Fe  Fe33  1  0.16813369  0.83484793  0.49863584  1
  Cr  Cr34  1  0.00043492  0.66599860  0.66728462  1
  Cr  Cr35  1  0.16748001  0.83272847  0.83436097  1
  Cr  Cr36  1  0.49612452  0.16869324  0.49925999  1
  Fe  Fe37  1  0.33539880  0.00135034  0.66814870  1
  Fe  Fe38  1  0.50161359  0.16596273  0.83616382  1
  Fe  Fe39  1  0.50184097  0.50145129  0.49811600  1
  Fe  Fe40  1  0.33422484  0.33688867  0.66851693  1
  Fe  Fe41  1  0.49849899  0.49915383  0.83555188  1
  Cr  Cr42  1  0.50030539  0.83564741  0.50165424  1
  Ni  Ni43  1  0.33548306  0.66910241  0.66775796  1
  Fe  Fe44  1  0.49893246  0.83523123  0.83440973  1
  Cr  Cr45  1  0.83103513  0.16493436  0.49767128  1
  Fe  Fe46  1  0.66530849  0.99925772  0.66937208  1
  Fe  Fe47  1  0.82961817  0.16334095  0.83418621  1
  Ni  Ni48  1  0.83473445  0.49807134  0.49692525  1
  Cr  Cr49  1  0.66570912  0.33330451  0.66623609  1
  Fe  Fe50  1  0.83037970  0.49937073  0.83403453  1
  Cr  Cr51  1  0.83390506  0.82914710  0.49907736  1
  Cr  Cr52  1  0.66382986  0.66428633  0.66679671  1
  Fe  Fe53  1  0.83107823  0.83546784  0.83285766  1
" 