434,Ni40Fe20Cr40_5,-223.217446855497, 169.07817718176,Ni40Fe20Cr40,"# generated using pymatgen
 data_Cr23Fe10Ni21
_symmetry_space_group_name_H-M   'P 1'
_cell_length_a   7.46704761
_cell_length_b   7.46704761
_cell_length_c   10.56000000
_cell_angle_alpha   90.00000000
_cell_angle_beta   90.00000000
_cell_angle_gamma   90.00000000
_symmetry_Int_Tables_number   1
_chemical_formula_structural   Cr23Fe10Ni21
_chemical_formula_sum   'Cr23 Fe10 Ni21'
_cell_volume   588.79180800
_cell_formula_units_Z   1
loop_
 _symmetry_equiv_pos_site_id
 _symmetry_equiv_pos_as_xyz
  1  'x, y, z'
loop_
 _atom_site_type_symbol
 _atom_site_label
 _atom_site_symmetry_multiplicity
 _atom_site_fract_x
 _atom_site_fract_y
 _atom_site_fract_z
 _atom_site_occupancy
  Fe  Fe0  1  0.00163598  0.99914875  0.99813678  1
  Ni  Ni1  1  0.16432822  0.16516293  0.16828993  1
  Fe  Fe2  1  0.00113102  0.00097588  0.33363386  1
  Cr  Cr3  1  0.00031076  0.33206222  0.99996756  1
  Fe  Fe4  1  0.16690804  0.49702316  0.16799554  1
  Fe  Fe5  1  0.00209557  0.33415781  0.33354171  1
  Cr  Cr6  1  0.00128331  0.66498786  0.00050926  1
  Fe  Fe7  1  0.16676117  0.83332379  0.16516548  1
  Cr  Cr8  1  0.99915868  0.66433173  0.33599275  1
  Cr  Cr9  1  0.33096420  0.99975287  0.99704767  1
  Cr  Cr10  1  0.49930911  0.16923553  0.16921346  1
  Cr  Cr11  1  0.33476149  0.00007425  0.33273039  1
  Cr  Cr12  1  0.33275286  0.33102646  0.99741480  1
  Cr  Cr13  1  0.49974570  0.50048589  0.16349144  1
  Ni  Ni14  1  0.33359393  0.33119266  0.33531205  1
  Ni  Ni15  1  0.33501668  0.66982831  0.99983824  1
  Ni  Ni16  1  0.49824400  0.83185269  0.16437934  1
  Cr  Cr17  1  0.33239876  0.66549263  0.33235472  1
  Cr  Cr18  1  0.66090585  0.00082958  0.99778240  1
  Cr  Cr19  1  0.83385483  0.16779575  0.16713879  1
  Fe  Fe20  1  0.66480067  0.00086496  0.33365858  1
  Ni  Ni21  1  0.66690410  0.33606726  0.99831445  1
  Ni  Ni22  1  0.83282080  0.49925159  0.16742276  1
  Ni  Ni23  1  0.66790839  0.33339318  0.33594160  1
  Ni  Ni24  1  0.66530089  0.66631255  0.00039569  1
  Cr  Cr25  1  0.83159418  0.83441508  0.16627787  1
  Cr  Cr26  1  0.66629519  0.66576170  0.33395622  1
  Cr  Cr27  1  0.16980868  0.16707198  0.50184487  1
  Ni  Ni28  1  0.00260324  0.99953843  0.66992394  1
  Ni  Ni29  1  0.16842276  0.16365162  0.83025668  1
  Ni  Ni30  1  0.17020065  0.49930883  0.50068330  1
  Cr  Cr31  1  0.00124655  0.33529540  0.66590719  1
  Cr  Cr32  1  0.17296391  0.50282018  0.82999212  1
  Cr  Cr33  1  0.16614965  0.83232975  0.50512510  1
  Ni  Ni34  1  0.99911937  0.66699040  0.66460871  1
  Ni  Ni35  1  0.16789913  0.83405403  0.83061305  1
  Ni  Ni36  1  0.50212721  0.17015536  0.50061460  1
  Ni  Ni37  1  0.33602094  0.00204848  0.67012024  1
  Ni  Ni38  1  0.49889939  0.17135810  0.82954023  1
  Ni  Ni39  1  0.49828838  0.49698889  0.50154008  1
  Ni  Ni40  1  0.33733342  0.33221867  0.66558960  1
  Ni  Ni41  1  0.50025392  0.50147059  0.83362025  1
  Cr  Cr42  1  0.49984773  0.83342125  0.50282443  1
  Ni  Ni43  1  0.33530561  0.66651790  0.66684652  1
  Fe  Fe44  1  0.49794146  0.83083202  0.83161614  1
  Cr  Cr45  1  0.83228000  0.16466407  0.49964357  1
  Fe  Fe46  1  0.66370924  0.00070033  0.66838923  1
  Cr  Cr47  1  0.83253831  0.16594400  0.83356610  1
  Fe  Fe48  1  0.83140684  0.49883987  0.50142931  1
  Fe  Fe49  1  0.66328168  0.33495296  0.66599993  1
  Cr  Cr50  1  0.82877613  0.50161174  0.83271635  1
  Cr  Cr51  1  0.83337908  0.83511340  0.50385943  1
  Ni  Ni52  1  0.66493654  0.66471499  0.66634043  1
  Cr  Cr53  1  0.83447577  0.83257967  0.83088528  1
" 