300,Ni40Fe40Cr20_0,-222.035119238944, 181.691559471912,Ni40Fe40Cr20,"# generated using pymatgen
 data_Cr23Fe21Ni10
_symmetry_space_group_name_H-M   'P 1'
_cell_length_a   7.46704761
_cell_length_b   7.46704761
_cell_length_c   10.56000000
_cell_angle_alpha   90.00000000
_cell_angle_beta   90.00000000
_cell_angle_gamma   90.00000000
_symmetry_Int_Tables_number   1
_chemical_formula_structural   Cr23Fe21Ni10
_chemical_formula_sum   'Cr23 Fe21 Ni10'
_cell_volume   588.79180800
_cell_formula_units_Z   1
loop_
 _symmetry_equiv_pos_site_id
 _symmetry_equiv_pos_as_xyz
  1  'x, y, z'
loop_
 _atom_site_type_symbol
 _atom_site_label
 _atom_site_symmetry_multiplicity
 _atom_site_fract_x
 _atom_site_fract_y
 _atom_site_fract_z
 _atom_site_occupancy
  Cr  Cr0  1  0.00299579  0.00036767  0.99939261  1
  Ni  Ni1  1  0.17011586  0.16467065  0.16910062  1
  Cr  Cr2  1  0.00088035  0.00020927  0.33525641  1
  Cr  Cr3  1  0.00172052  0.33242755  0.00052504  1
  Cr  Cr4  1  0.16455243  0.50280151  0.16794715  1
  Cr  Cr5  1  0.99853831  0.33156509  0.33273705  1
  Cr  Cr6  1  0.00070245  0.66828453  0.00135902  1
  Fe  Fe7  1  0.16904875  0.83482878  0.16926005  1
  Fe  Fe8  1  0.99919040  0.66643313  0.33751532  1
  Fe  Fe9  1  0.33576404  0.99855763  0.00014129  1
  Cr  Cr10  1  0.49865023  0.16252422  0.16896571  1
  Fe  Fe11  1  0.33300983  0.99918433  0.33546151  1
  Cr  Cr12  1  0.33349842  0.33491562  0.00177427  1
  Cr  Cr13  1  0.50059156  0.50378396  0.16939513  1
  Fe  Fe14  1  0.33064985  0.33395834  0.33491567  1
  Fe  Fe15  1  0.33583727  0.66870295  0.00008152  1
  Cr  Cr16  1  0.50112443  0.83578873  0.16759291  1
  Ni  Ni17  1  0.33239306  0.66863695  0.33570304  1
  Ni  Ni18  1  0.66624491  0.99543420  0.99492330  1
  Cr  Cr19  1  0.83104022  0.16450976  0.16333090  1
  Ni  Ni20  1  0.66696193  0.99778941  0.33726906  1
  Cr  Cr21  1  0.66540136  0.33561426  0.00074206  1
  Ni  Ni22  1  0.83338961  0.50420339  0.16881022  1
  Cr  Cr23  1  0.66620376  0.33349785  0.33234749  1
  Ni  Ni24  1  0.66367878  0.66909440  0.00016064  1
  Cr  Cr25  1  0.83224662  0.83065132  0.16832203  1
  Fe  Fe26  1  0.66679194  0.66772101  0.33669630  1
  Fe  Fe27  1  0.16709729  0.16936784  0.50032657  1
  Cr  Cr28  1  0.00083859  0.99974743  0.66517731  1
  Cr  Cr29  1  0.17140743  0.16902821  0.83027185  1
  Ni  Ni30  1  0.16652268  0.50208195  0.49975775  1
  Cr  Cr31  1  0.99941947  0.33350176  0.66680004  1
  Ni  Ni32  1  0.16988973  0.50303010  0.83194090  1
  Fe  Fe33  1  0.16983143  0.83395140  0.49908354  1
  Cr  Cr34  1  0.00050707  0.66814322  0.66282237  1
  Cr  Cr35  1  0.16955716  0.83018717  0.83297673  1
  Cr  Cr36  1  0.50019709  0.16500562  0.49955229  1
  Fe  Fe37  1  0.33657680  0.99685055  0.66420866  1
  Cr  Cr38  1  0.50326215  0.16381196  0.83107397  1
  Fe  Fe39  1  0.49700518  0.49883498  0.49793614  1
  Fe  Fe40  1  0.33454217  0.33804560  0.66475658  1
  Fe  Fe41  1  0.49704412  0.50141711  0.83265446  1
  Fe  Fe42  1  0.49857079  0.83184648  0.49761529  1
  Fe  Fe43  1  0.33265149  0.66463615  0.66319362  1
  Fe  Fe44  1  0.50026104  0.82962071  0.83318174  1
  Ni  Ni45  1  0.83042794  0.16532886  0.50362849  1
  Fe  Fe46  1  0.66785048  0.99849007  0.66559116  1
  Fe  Fe47  1  0.83330635  0.16584752  0.83188569  1
  Fe  Fe48  1  0.83133738  0.49697998  0.49943539  1
  Ni  Ni49  1  0.66336529  0.33297577  0.66680447  1
  Cr  Cr50  1  0.83395651  0.50225604  0.83443174  1
  Fe  Fe51  1  0.83139591  0.83343529  0.49852495  1
  Cr  Cr52  1  0.66115101  0.66537410  0.66375408  1
  Fe  Fe53  1  0.83080476  0.83404762  0.83288790  1
" 