447,Ni40Fe40Cr20_8,-221.356685776371, 178.469580911298,Ni40Fe40Cr20,"# generated using pymatgen
 data_Cr23Fe21Ni10
_symmetry_space_group_name_H-M   'P 1'
_cell_length_a   7.46704761
_cell_length_b   7.46704761
_cell_length_c   10.56000000
_cell_angle_alpha   90.00000000
_cell_angle_beta   90.00000000
_cell_angle_gamma   90.00000000
_symmetry_Int_Tables_number   1
_chemical_formula_structural   Cr23Fe21Ni10
_chemical_formula_sum   'Cr23 Fe21 Ni10'
_cell_volume   588.79180800
_cell_formula_units_Z   1
loop_
 _symmetry_equiv_pos_site_id
 _symmetry_equiv_pos_as_xyz
  1  'x, y, z'
loop_
 _atom_site_type_symbol
 _atom_site_label
 _atom_site_symmetry_multiplicity
 _atom_site_fract_x
 _atom_site_fract_y
 _atom_site_fract_z
 _atom_site_occupancy
  Cr  Cr0  1  0.99304797  0.00042189  0.99791809  1
  Cr  Cr1  1  0.16316188  0.16838827  0.16748762  1
  Fe  Fe2  1  0.99820488  0.00610123  0.33637976  1
  Ni  Ni3  1  0.00061817  0.33439250  0.99761084  1
  Fe  Fe4  1  0.16494234  0.50003755  0.16632479  1
  Ni  Ni5  1  0.00228387  0.33498699  0.33517916  1
  Ni  Ni6  1  0.00093321  0.66426310  0.99941562  1
  Cr  Cr7  1  0.16493299  0.83519438  0.16395779  1
  Fe  Fe8  1  0.00137064  0.66507865  0.33487714  1
  Fe  Fe9  1  0.33323681  0.00040441  0.00202785  1
  Fe  Fe10  1  0.50195170  0.16265248  0.16696973  1
  Cr  Cr11  1  0.33623407  0.00253408  0.33305180  1
  Cr  Cr12  1  0.33438033  0.33532547  0.00358271  1
  Cr  Cr13  1  0.50473462  0.49721417  0.16698309  1
  Ni  Ni14  1  0.32997737  0.33383125  0.33491610  1
  Fe  Fe15  1  0.33340147  0.66728677  0.00199622  1
  Fe  Fe16  1  0.50208875  0.83473568  0.16661310  1
  Cr  Cr17  1  0.33299077  0.66231261  0.33035078  1
  Ni  Ni18  1  0.66424928  0.00048364  0.00185727  1
  Fe  Fe19  1  0.83204134  0.16541415  0.16678984  1
  Ni  Ni20  1  0.66895002  0.99829367  0.33456119  1
  Fe  Fe21  1  0.67289594  0.33025319  0.99871025  1
  Cr  Cr22  1  0.83729969  0.49623319  0.16636286  1
  Cr  Cr23  1  0.66511377  0.32724477  0.33222861  1
  Cr  Cr24  1  0.66896698  0.66810167  0.99873457  1
  Cr  Cr25  1  0.83419916  0.83206295  0.17308064  1
  Fe  Fe26  1  0.66745928  0.66509773  0.33447873  1
  Fe  Fe27  1  0.16677026  0.17234950  0.50010702  1
  Cr  Cr28  1  0.99683613  0.00128592  0.66481555  1
  Cr  Cr29  1  0.16514428  0.16633110  0.83056940  1
  Fe  Fe30  1  0.16758354  0.49937839  0.50180130  1
  Fe  Fe31  1  0.99609001  0.33584123  0.66582084  1
  Cr  Cr32  1  0.16673173  0.50150201  0.83276080  1
  Cr  Cr33  1  0.16365571  0.83610359  0.49998398  1
  Ni  Ni34  1  0.00004268  0.66757485  0.66691795  1
  Cr  Cr35  1  0.16522742  0.83485690  0.83505824  1
  Ni  Ni36  1  0.49835493  0.16694898  0.50060915  1
  Fe  Fe37  1  0.33304105  0.00126267  0.66403613  1
  Cr  Cr38  1  0.49881210  0.16671357  0.83446193  1
  Cr  Cr39  1  0.50288885  0.49630390  0.50325773  1
  Fe  Fe40  1  0.33273426  0.33280532  0.66427949  1
  Cr  Cr41  1  0.50613352  0.49955234  0.82929070  1
  Cr  Cr42  1  0.50117481  0.83164051  0.49976514  1
  Fe  Fe43  1  0.33323740  0.66686532  0.66559029  1
  Cr  Cr44  1  0.49682820  0.83391874  0.83325802  1
  Fe  Fe45  1  0.83095747  0.16758877  0.49899954  1
  Cr  Cr46  1  0.66644554  0.00007952  0.66565529  1
  Fe  Fe47  1  0.83062741  0.16925144  0.83374063  1
  Cr  Cr48  1  0.83373402  0.50079537  0.50032894  1
  Ni  Ni49  1  0.66629745  0.33211884  0.66833762  1
  Fe  Fe50  1  0.83670927  0.49992287  0.83131603  1
  Fe  Fe51  1  0.83204610  0.83294984  0.49778709  1
  Ni  Ni52  1  0.67047140  0.66651524  0.66645789  1
  Fe  Fe53  1  0.83175713  0.83119682  0.83254715  1
" 