226,Ni40Fe20Cr40_4,-223.015083273671, 164.749463635555,Ni40Fe20Cr40,"# generated using pymatgen
 data_Cr23Fe10Ni21
_symmetry_space_group_name_H-M   'P 1'
_cell_length_a   7.46704761
_cell_length_b   7.46704761
_cell_length_c   10.56000000
_cell_angle_alpha   90.00000000
_cell_angle_beta   90.00000000
_cell_angle_gamma   90.00000000
_symmetry_Int_Tables_number   1
_chemical_formula_structural   Cr23Fe10Ni21
_chemical_formula_sum   'Cr23 Fe10 Ni21'
_cell_volume   588.79180800
_cell_formula_units_Z   1
loop_
 _symmetry_equiv_pos_site_id
 _symmetry_equiv_pos_as_xyz
  1  'x, y, z'
loop_
 _atom_site_type_symbol
 _atom_site_label
 _atom_site_symmetry_multiplicity
 _atom_site_fract_x
 _atom_site_fract_y
 _atom_site_fract_z
 _atom_site_occupancy
  Fe  Fe0  1  0.99948532  0.99547606  0.99898330  1
  Cr  Cr1  1  0.17116073  0.16541217  0.16400191  1
  Cr  Cr2  1  0.99996319  0.99864955  0.33067825  1
  Cr  Cr3  1  0.00033791  0.33240773  0.00077540  1
  Ni  Ni4  1  0.16823894  0.50207957  0.16746830  1
  Cr  Cr5  1  0.00366537  0.33271060  0.33475361  1
  Fe  Fe6  1  0.00114321  0.66898509  0.00091726  1
  Fe  Fe7  1  0.16587325  0.82992953  0.16429686  1
  Ni  Ni8  1  0.00342527  0.66911270  0.33191834  1
  Ni  Ni9  1  0.33482636  0.99648332  0.99963322  1
  Cr  Cr10  1  0.49924515  0.16742597  0.16550538  1
  Fe  Fe11  1  0.33147639  0.00369448  0.33386878  1
  Ni  Ni12  1  0.33473467  0.33396113  0.99838613  1
  Cr  Cr13  1  0.49841589  0.49970444  0.16531979  1
  Ni  Ni14  1  0.33415229  0.33588021  0.33541049  1
  Ni  Ni15  1  0.32995571  0.66784806  0.99817456  1
  Cr  Cr16  1  0.49762115  0.83429491  0.16918903  1
  Ni  Ni17  1  0.32956118  0.66641674  0.33245236  1
  Ni  Ni18  1  0.66703406  0.99867403  0.99656660  1
  Cr  Cr19  1  0.83060710  0.16497020  0.16135362  1
  Cr  Cr20  1  0.66770600  0.00101633  0.33411554  1
  Ni  Ni21  1  0.66395654  0.32916119  0.99606815  1
  Cr  Cr22  1  0.83289498  0.50014328  0.16825307  1
  Ni  Ni23  1  0.66366292  0.33128210  0.33354251  1
  Cr  Cr24  1  0.66409436  0.66919204  0.99647967  1
  Ni  Ni25  1  0.83433523  0.83030519  0.16521357  1
  Fe  Fe26  1  0.66845094  0.66662453  0.33279522  1
  Ni  Ni27  1  0.17057262  0.16817742  0.50281612  1
  Fe  Fe28  1  0.00001527  0.00020911  0.66831266  1
  Cr  Cr29  1  0.16709954  0.16410722  0.83327994  1
  Fe  Fe30  1  0.16866695  0.49938808  0.49997436  1
  Ni  Ni31  1  0.00219879  0.32942932  0.66491251  1
  Cr  Cr32  1  0.16706022  0.49890727  0.83301289  1
  Cr  Cr33  1  0.16776132  0.83689322  0.50027698  1
  Cr  Cr34  1  0.00150019  0.66814185  0.66682871  1
  Ni  Ni35  1  0.16742199  0.83393533  0.83697716  1
  Ni  Ni36  1  0.49504808  0.16759227  0.49971198  1
  Fe  Fe37  1  0.33478690  0.00216749  0.66884526  1
  Ni  Ni38  1  0.49919393  0.16391999  0.83564265  1
  Cr  Cr39  1  0.50028339  0.50059390  0.49842188  1
  Ni  Ni40  1  0.33169069  0.32976952  0.66622996  1
  Fe  Fe41  1  0.49787496  0.49821542  0.83531353  1
  Cr  Cr42  1  0.50051082  0.83603173  0.49806556  1
  Cr  Cr43  1  0.33475995  0.66693422  0.67074805  1
  Ni  Ni44  1  0.49844744  0.83712078  0.83386842  1
  Cr  Cr45  1  0.83388564  0.16672250  0.50340492  1
  Fe  Fe46  1  0.66540619  0.00167589  0.66879046  1
  Ni  Ni47  1  0.83172715  0.16307402  0.83398565  1
  Cr  Cr48  1  0.83497287  0.50255990  0.49754198  1
  Cr  Cr49  1  0.66352362  0.33118758  0.67041063  1
  Cr  Cr50  1  0.83411043  0.49820547  0.83424839  1
  Ni  Ni51  1  0.83473654  0.83338056  0.49978789  1
  Cr  Cr52  1  0.66659156  0.67295553  0.66928819  1
  Ni  Ni53  1  0.83412883  0.83686330  0.83318235  1
" 