59,Ni40Fe20Cr40_10,-223.338899684348, 169.150900546462,Ni40Fe20Cr40,"# generated using pymatgen
 data_Cr23Fe10Ni21
_symmetry_space_group_name_H-M   'P 1'
_cell_length_a   7.46704761
_cell_length_b   7.46704761
_cell_length_c   10.56000000
_cell_angle_alpha   90.00000000
_cell_angle_beta   90.00000000
_cell_angle_gamma   90.00000000
_symmetry_Int_Tables_number   1
_chemical_formula_structural   Cr23Fe10Ni21
_chemical_formula_sum   'Cr23 Fe10 Ni21'
_cell_volume   588.79180800
_cell_formula_units_Z   1
loop_
 _symmetry_equiv_pos_site_id
 _symmetry_equiv_pos_as_xyz
  1  'x, y, z'
loop_
 _atom_site_type_symbol
 _atom_site_label
 _atom_site_symmetry_multiplicity
 _atom_site_fract_x
 _atom_site_fract_y
 _atom_site_fract_z
 _atom_site_occupancy
  Ni  Ni0  1  0.00086666  0.00105045  0.99779595  1
  Ni  Ni1  1  0.16353773  0.16907626  0.16374631  1
  Cr  Cr2  1  0.00477985  0.99842538  0.33107993  1
  Ni  Ni3  1  0.99717906  0.33105246  0.99858290  1
  Cr  Cr4  1  0.16668447  0.49884245  0.16652470  1
  Ni  Ni5  1  0.00089200  0.33473560  0.33451303  1
  Cr  Cr6  1  0.99938109  0.66682216  0.99912066  1
  Ni  Ni7  1  0.16608892  0.83171688  0.16391312  1
  Ni  Ni8  1  0.00107400  0.66317242  0.33417746  1
  Cr  Cr9  1  0.33173701  0.99936812  0.00064762  1
  Cr  Cr10  1  0.49946840  0.16882648  0.16455369  1
  Cr  Cr11  1  0.33062234  0.00092969  0.33020716  1
  Ni  Ni12  1  0.33455311  0.33293090  0.99880683  1
  Cr  Cr13  1  0.49764163  0.50108735  0.16163333  1
  Fe  Fe14  1  0.32969266  0.33443106  0.33397425  1
  Ni  Ni15  1  0.33573855  0.66870591  0.99799109  1
  Ni  Ni16  1  0.49973193  0.83160699  0.16354087  1
  Cr  Cr17  1  0.33246949  0.67062259  0.33470891  1
  Fe  Fe18  1  0.66713939  0.00068429  0.99675052  1
  Cr  Cr19  1  0.83383901  0.16668524  0.16580447  1
  Cr  Cr20  1  0.66227718  0.99808859  0.33357010  1
  Ni  Ni21  1  0.66812300  0.33552510  0.99721134  1
  Fe  Fe22  1  0.83496608  0.49875232  0.16597082  1
  Cr  Cr23  1  0.66739614  0.33691893  0.33446788  1
  Fe  Fe24  1  0.66544760  0.66602846  0.99715280  1
  Cr  Cr25  1  0.83290761  0.83304970  0.16464042  1
  Cr  Cr26  1  0.66753020  0.66456730  0.33301910  1
  Ni  Ni27  1  0.16582733  0.16812847  0.49976292  1
  Cr  Cr28  1  0.00285280  0.00185473  0.67116368  1
  Fe  Fe29  1  0.16820664  0.16900942  0.83597846  1
  Fe  Fe30  1  0.16497935  0.49887020  0.50047211  1
  Ni  Ni31  1  0.99957902  0.33253706  0.66718513  1
  Cr  Cr32  1  0.16899885  0.50013718  0.83316063  1
  Ni  Ni33  1  0.16738591  0.83137484  0.50148064  1
  Cr  Cr34  1  0.00046905  0.66440166  0.66748309  1
  Fe  Fe35  1  0.16953464  0.83339760  0.83455910  1
  Cr  Cr36  1  0.49946395  0.16747771  0.50023280  1
  Cr  Cr37  1  0.33436956  0.99939305  0.66872126  1
  Ni  Ni38  1  0.50502322  0.16715139  0.83577948  1
  Ni  Ni39  1  0.49632605  0.50260300  0.50121638  1
  Cr  Cr40  1  0.33391788  0.33428594  0.66733922  1
  Ni  Ni41  1  0.49803236  0.50120409  0.83622185  1
  Fe  Fe42  1  0.49861169  0.83295505  0.50263772  1
  Ni  Ni43  1  0.33380678  0.66873912  0.66667199  1
  Ni  Ni44  1  0.50113924  0.83217061  0.83338504  1
  Cr  Cr45  1  0.83507987  0.16519989  0.50132221  1
  Ni  Ni46  1  0.66588627  0.99908007  0.67036185  1
  Ni  Ni47  1  0.83472835  0.16488999  0.83421003  1
  Ni  Ni48  1  0.83530701  0.49952487  0.49967092  1
  Cr  Cr49  1  0.66877232  0.33337109  0.66828624  1
  Fe  Fe50  1  0.83149731  0.49661704  0.83432231  1
  Cr  Cr51  1  0.83436704  0.83351600  0.50171445  1
  Cr  Cr52  1  0.66382168  0.66379662  0.66789735  1
  Fe  Fe53  1  0.83025074  0.83461023  0.83465790  1
" 