82,Ni40Fe40Cr20_9,-222.001935045623, 175.486915369755,Ni40Fe40Cr20,"# generated using pymatgen
 data_Cr23Fe21Ni10
_symmetry_space_group_name_H-M   'P 1'
_cell_length_a   7.46704761
_cell_length_b   7.46704761
_cell_length_c   10.56000000
_cell_angle_alpha   90.00000000
_cell_angle_beta   90.00000000
_cell_angle_gamma   90.00000000
_symmetry_Int_Tables_number   1
_chemical_formula_structural   Cr23Fe21Ni10
_chemical_formula_sum   'Cr23 Fe21 Ni10'
_cell_volume   588.79180800
_cell_formula_units_Z   1
loop_
 _symmetry_equiv_pos_site_id
 _symmetry_equiv_pos_as_xyz
  1  'x, y, z'
loop_
 _atom_site_type_symbol
 _atom_site_label
 _atom_site_symmetry_multiplicity
 _atom_site_fract_x
 _atom_site_fract_y
 _atom_site_fract_z
 _atom_site_occupancy
  Cr  Cr0  1  0.99921456  0.00004746  0.00282306  1
  Fe  Fe1  1  0.16780450  0.16869663  0.16516367  1
  Cr  Cr2  1  0.00108200  0.00067579  0.33238125  1
  Fe  Fe3  1  0.99904297  0.33683063  0.00187392  1
  Fe  Fe4  1  0.16747281  0.49867286  0.16376260  1
  Cr  Cr5  1  0.00134275  0.33158695  0.33287435  1
  Ni  Ni6  1  0.00065732  0.66510126  0.00202616  1
  Ni  Ni7  1  0.16502475  0.83092773  0.16658202  1
  Cr  Cr8  1  0.99937732  0.66423443  0.32976897  1
  Cr  Cr9  1  0.33499559  0.00049392  0.00044517  1
  Ni  Ni10  1  0.50081340  0.17148144  0.16392916  1
  Cr  Cr11  1  0.33192448  0.00212712  0.33385368  1
  Fe  Fe12  1  0.33225921  0.33767836  0.00168289  1
  Fe  Fe13  1  0.49925794  0.49713087  0.16468190  1
  Fe  Fe14  1  0.33496477  0.33487477  0.33199906  1
  Fe  Fe15  1  0.33054076  0.66484569  0.00112863  1
  Cr  Cr16  1  0.49545711  0.83501422  0.16517838  1
  Cr  Cr17  1  0.33360500  0.66615977  0.33481894  1
  Fe  Fe18  1  0.66922442  0.00137636  0.00257403  1
  Ni  Ni19  1  0.83133786  0.17255322  0.16551678  1
  Cr  Cr20  1  0.66683470  0.99942922  0.32819402  1
  Ni  Ni21  1  0.66677946  0.33451653  0.00223064  1
  Ni  Ni22  1  0.83447662  0.49764152  0.16469142  1
  Fe  Fe23  1  0.66585741  0.33309614  0.32895998  1
  Cr  Cr24  1  0.66824368  0.66724035  0.00127459  1
  Fe  Fe25  1  0.83430692  0.83377300  0.16494522  1
  Cr  Cr26  1  0.66486603  0.66326005  0.33014905  1
  Fe  Fe27  1  0.16618788  0.16560743  0.50083273  1
  Fe  Fe28  1  0.99974677  0.99882117  0.66560212  1
  Cr  Cr29  1  0.16654321  0.16982433  0.83655927  1
  Fe  Fe30  1  0.16717141  0.50292293  0.50125383  1
  Cr  Cr31  1  0.00099363  0.33330036  0.66741545  1
  Ni  Ni32  1  0.16542831  0.50529313  0.83570275  1
  Ni  Ni33  1  0.16769558  0.83284378  0.50137732  1
  Fe  Fe34  1  0.00146848  0.66779021  0.66673214  1
  Cr  Cr35  1  0.16707522  0.83140149  0.83261302  1
  Cr  Cr36  1  0.50374955  0.16889416  0.49793322  1
  Cr  Cr37  1  0.33569754  0.00017295  0.66643068  1
  Cr  Cr38  1  0.50274084  0.16573558  0.83760555  1
  Fe  Fe39  1  0.49856936  0.50295506  0.50141323  1
  Cr  Cr40  1  0.33126555  0.33579349  0.66676134  1
  Cr  Cr41  1  0.49840145  0.49967722  0.83349818  1
  Ni  Ni42  1  0.49877320  0.83382805  0.50257224  1
  Fe  Fe43  1  0.33323925  0.66764683  0.66514719  1
  Fe  Fe44  1  0.50267649  0.83131448  0.83294041  1
  Fe  Fe45  1  0.83324138  0.16168704  0.50154084  1
  Ni  Ni46  1  0.66825895  0.99467230  0.66946486  1
  Cr  Cr47  1  0.83150992  0.16614826  0.83325072  1
  Cr  Cr48  1  0.83015896  0.49484527  0.50079195  1
  Fe  Fe49  1  0.66517813  0.32974051  0.66701720  1
  Cr  Cr50  1  0.83462518  0.50047587  0.83301227  1
  Cr  Cr51  1  0.83439760  0.83031957  0.49965724  1
  Fe  Fe52  1  0.66427942  0.66670519  0.66642180  1
  Fe  Fe53  1  0.83416243  0.83211703  0.83294290  1
" 