276,Ni40Fe20Cr40_8,-223.800614902151, 172.078910477462,Ni40Fe20Cr40,"# generated using pymatgen
 data_Cr23Fe10Ni21
_symmetry_space_group_name_H-M   'P 1'
_cell_length_a   7.46704761
_cell_length_b   7.46704761
_cell_length_c   10.56000000
_cell_angle_alpha   90.00000000
_cell_angle_beta   90.00000000
_cell_angle_gamma   90.00000000
_symmetry_Int_Tables_number   1
_chemical_formula_structural   Cr23Fe10Ni21
_chemical_formula_sum   'Cr23 Fe10 Ni21'
_cell_volume   588.79180800
_cell_formula_units_Z   1
loop_
 _symmetry_equiv_pos_site_id
 _symmetry_equiv_pos_as_xyz
  1  'x, y, z'
loop_
 _atom_site_type_symbol
 _atom_site_label
 _atom_site_symmetry_multiplicity
 _atom_site_fract_x
 _atom_site_fract_y
 _atom_site_fract_z
 _atom_site_occupancy
  Cr  Cr0  1  0.00139972  0.99926695  0.99982300  1
  Ni  Ni1  1  0.17008006  0.16961541  0.17028451  1
  Cr  Cr2  1  0.99883553  0.99736033  0.33405070  1
  Cr  Cr3  1  0.00190902  0.33378491  0.00169108  1
  Ni  Ni4  1  0.16893985  0.49959141  0.16736388  1
  Ni  Ni5  1  0.00318576  0.33511543  0.33192249  1
  Ni  Ni6  1  0.99933668  0.66611210  0.00367847  1
  Cr  Cr7  1  0.16580462  0.83151923  0.16980722  1
  Cr  Cr8  1  0.99700227  0.66247384  0.33758321  1
  Cr  Cr9  1  0.33586436  0.00030591  0.00040763  1
  Ni  Ni10  1  0.50012904  0.16704619  0.17036555  1
  Ni  Ni11  1  0.33677534  0.00335073  0.33286488  1
  Cr  Cr12  1  0.33403442  0.33312390  0.00293879  1
  Fe  Fe13  1  0.50109126  0.50105264  0.16723087  1
  Ni  Ni14  1  0.33426035  0.33310570  0.33196670  1
  Ni  Ni15  1  0.33587335  0.66768229  0.00189984  1
  Fe  Fe16  1  0.50009533  0.83474200  0.16845963  1
  Cr  Cr17  1  0.33547613  0.66381532  0.33376822  1
  Fe  Fe18  1  0.66516323  0.99811345  0.00291779  1
  Cr  Cr19  1  0.83233562  0.16449711  0.16839647  1
  Ni  Ni20  1  0.66354907  0.99892455  0.33156243  1
  Fe  Fe21  1  0.66527262  0.33413124  0.00266240  1
  Fe  Fe22  1  0.83468471  0.50061761  0.16774490  1
  Cr  Cr23  1  0.66518233  0.33757756  0.33539548  1
  Fe  Fe24  1  0.66519135  0.66733988  0.00362654  1
  Ni  Ni25  1  0.82784597  0.82976292  0.16761909  1
  Ni  Ni26  1  0.66707189  0.66907588  0.33286462  1
  Cr  Cr27  1  0.16989947  0.16640670  0.49744811  1
  Ni  Ni28  1  0.00156340  0.99803583  0.66528391  1
  Ni  Ni29  1  0.16933697  0.16439538  0.83021811  1
  Ni  Ni30  1  0.16984019  0.49756156  0.49943341  1
  Cr  Cr31  1  0.99976670  0.33205196  0.66639143  1
  Cr  Cr32  1  0.16859729  0.50069214  0.83322080  1
  Fe  Fe33  1  0.16701630  0.83180661  0.50037845  1
  Cr  Cr34  1  0.99719753  0.66643665  0.66014636  1
  Cr  Cr35  1  0.16867576  0.83095567  0.82953329  1
  Fe  Fe36  1  0.50012239  0.17006317  0.49844452  1
  Fe  Fe37  1  0.33305326  0.00044599  0.66461090  1
  Cr  Cr38  1  0.50085116  0.16905962  0.83008116  1
  Ni  Ni39  1  0.49929431  0.50113092  0.50152919  1
  Ni  Ni40  1  0.33557045  0.33408625  0.66405634  1
  Cr  Cr41  1  0.49904550  0.50348696  0.83181244  1
  Cr  Cr42  1  0.49977400  0.83392200  0.49839713  1
  Ni  Ni43  1  0.33476586  0.66585556  0.66446657  1
  Fe  Fe44  1  0.49929864  0.83279045  0.83227349  1
  Cr  Cr45  1  0.83242520  0.16646520  0.49845706  1
  Cr  Cr46  1  0.66780882  0.99980705  0.66528517  1
  Cr  Cr47  1  0.83359871  0.16658528  0.83346901  1
  Ni  Ni48  1  0.82927086  0.50165904  0.49969992  1
  Ni  Ni49  1  0.66298104  0.33638073  0.66423109  1
  Cr  Cr50  1  0.82914720  0.50077487  0.83446612  1
  Ni  Ni51  1  0.82966898  0.83244705  0.49860188  1
  Ni  Ni52  1  0.66299522  0.66631750  0.66478098  1
  Cr  Cr53  1  0.83204491  0.83127534  0.83438674  1
" 