363,Ni40Fe20Cr40_9,-223.480939358169, 170.77591969125,Ni40Fe20Cr40,"# generated using pymatgen
 data_Cr23Fe10Ni21
_symmetry_space_group_name_H-M   'P 1'
_cell_length_a   7.46704761
_cell_length_b   7.46704761
_cell_length_c   10.56000000
_cell_angle_alpha   90.00000000
_cell_angle_beta   90.00000000
_cell_angle_gamma   90.00000000
_symmetry_Int_Tables_number   1
_chemical_formula_structural   Cr23Fe10Ni21
_chemical_formula_sum   'Cr23 Fe10 Ni21'
_cell_volume   588.79180800
_cell_formula_units_Z   1
loop_
 _symmetry_equiv_pos_site_id
 _symmetry_equiv_pos_as_xyz
  1  'x, y, z'
loop_
 _atom_site_type_symbol
 _atom_site_label
 _atom_site_symmetry_multiplicity
 _atom_site_fract_x
 _atom_site_fract_y
 _atom_site_fract_z
 _atom_site_occupancy
  Cr  Cr0  1  0.99560965  0.00026257  0.00046337  1
  Fe  Fe1  1  0.16801013  0.16634174  0.16632373  1
  Ni  Ni2  1  0.99877658  0.99881619  0.33251959  1
  Cr  Cr3  1  0.99683006  0.33133594  0.00208476  1
  Ni  Ni4  1  0.16778924  0.49921049  0.16402894  1
  Cr  Cr5  1  0.99928949  0.33018416  0.33254910  1
  Cr  Cr6  1  0.99900012  0.66855467  0.00073725  1
  Cr  Cr7  1  0.16736467  0.83650765  0.16833741  1
  Cr  Cr8  1  0.00108411  0.66751907  0.33476996  1
  Ni  Ni9  1  0.33573281  0.00161976  0.99997708  1
  Ni  Ni10  1  0.50140004  0.16317138  0.16643825  1
  Ni  Ni11  1  0.33476765  0.00070554  0.33346230  1
  Fe  Fe12  1  0.33671888  0.33103883  0.00032508  1
  Cr  Cr13  1  0.50272643  0.49751048  0.16716794  1
  Cr  Cr14  1  0.33529959  0.33084922  0.33180406  1
  Cr  Cr15  1  0.33566066  0.66933005  0.00062507  1
  Fe  Fe16  1  0.50259040  0.83708689  0.16721545  1
  Cr  Cr17  1  0.33614993  0.66901013  0.33156774  1
  Fe  Fe18  1  0.66353144  0.00276974  0.99931089  1
  Ni  Ni19  1  0.82884680  0.16379313  0.16701176  1
  Ni  Ni20  1  0.66593241  0.00047897  0.33035725  1
  Ni  Ni21  1  0.66448925  0.33070314  0.99832490  1
  Cr  Cr22  1  0.83179798  0.49924941  0.17006277  1
  Ni  Ni23  1  0.66651085  0.33064918  0.33501491  1
  Cr  Cr24  1  0.66531784  0.67080902  0.99850945  1
  Fe  Fe25  1  0.82996904  0.83558299  0.16905151  1
  Ni  Ni26  1  0.66854278  0.66963210  0.33454754  1
  Cr  Cr27  1  0.17019429  0.16116649  0.50058579  1
  Ni  Ni28  1  0.99648312  0.99500465  0.66553486  1
  Cr  Cr29  1  0.16799884  0.16526155  0.83360088  1
  Cr  Cr30  1  0.16797207  0.50005188  0.50318114  1
  Cr  Cr31  1  0.99777707  0.32882668  0.66572416  1
  Cr  Cr32  1  0.16815898  0.50005542  0.83428965  1
  Fe  Fe33  1  0.16670997  0.83417436  0.50188858  1
  Fe  Fe34  1  0.99755812  0.66796262  0.66447752  1
  Cr  Cr35  1  0.16563462  0.83500243  0.82842598  1
  Ni  Ni36  1  0.49948002  0.16500563  0.49989270  1
  Fe  Fe37  1  0.33759735  0.00284771  0.66756170  1
  Ni  Ni38  1  0.50087734  0.16624222  0.83429247  1
  Cr  Cr39  1  0.50306531  0.49969106  0.49993220  1
  Ni  Ni40  1  0.33601886  0.33548476  0.66995387  1
  Ni  Ni41  1  0.50055580  0.50020461  0.83287997  1
  Cr  Cr42  1  0.50235529  0.83843549  0.49915286  1
  Ni  Ni43  1  0.33619028  0.66944083  0.66871101  1
  Ni  Ni44  1  0.50157550  0.83674905  0.83348435  1
  Cr  Cr45  1  0.82927776  0.16193175  0.49794464  1
  Ni  Ni46  1  0.66750176  0.99750742  0.66991571  1
  Fe  Fe47  1  0.82933009  0.16340932  0.83345954  1
  Ni  Ni48  1  0.83213817  0.50301148  0.49851666  1
  Cr  Cr49  1  0.66407782  0.32953262  0.66570962  1
  Cr  Cr50  1  0.83085309  0.50164293  0.83131422  1
  Ni  Ni51  1  0.83421862  0.83297688  0.49909406  1
  Fe  Fe52  1  0.66657841  0.66948403  0.66649299  1
  Ni  Ni53  1  0.83008263  0.83617367  0.83139478  1
" 