92,Ni60Fe20Cr20_1,-214.724476133982, 177.176409037553,Ni60Fe20Cr20,"# generated using pymatgen
 data_Cr17(FeNi)5
_symmetry_space_group_name_H-M   'P 1'
_cell_length_a   7.46704761
_cell_length_b   7.46704761
_cell_length_c   10.56000000
_cell_angle_alpha   90.00000000
_cell_angle_beta   90.00000000
_cell_angle_gamma   90.00000000
_symmetry_Int_Tables_number   1
_chemical_formula_structural   Cr17(FeNi)5
_chemical_formula_sum   'Cr34 Fe10 Ni10'
_cell_volume   588.79180800
_cell_formula_units_Z   2
loop_
 _symmetry_equiv_pos_site_id
 _symmetry_equiv_pos_as_xyz
  1  'x, y, z'
loop_
 _atom_site_type_symbol
 _atom_site_label
 _atom_site_symmetry_multiplicity
 _atom_site_fract_x
 _atom_site_fract_y
 _atom_site_fract_z
 _atom_site_occupancy
  Cr  Cr0  1  0.99998755  0.00202736  0.00148873  1
  Fe  Fe1  1  0.16864764  0.16882088  0.16718473  1
  Fe  Fe2  1  0.99878773  0.00037242  0.32928140  1
  Cr  Cr3  1  0.00292292  0.33284291  0.99808902  1
  Cr  Cr4  1  0.16777423  0.50023567  0.16384684  1
  Fe  Fe5  1  0.00053329  0.33215085  0.33091439  1
  Ni  Ni6  1  0.99772982  0.66649297  0.99732334  1
  Cr  Cr7  1  0.16385025  0.83232359  0.16384861  1
  Cr  Cr8  1  0.99870558  0.66521357  0.33605487  1
  Cr  Cr9  1  0.33359216  0.00329741  0.99777541  1
  Ni  Ni10  1  0.50011409  0.16595990  0.16562951  1
  Cr  Cr11  1  0.33293611  0.99912060  0.33200163  1
  Ni  Ni12  1  0.33379406  0.33174563  0.00128992  1
  Cr  Cr13  1  0.49990418  0.49728886  0.16306515  1
  Fe  Fe14  1  0.33419550  0.33082430  0.32954852  1
  Ni  Ni15  1  0.33377410  0.66690684  0.00139268  1
  Fe  Fe16  1  0.49853052  0.83127274  0.16381167  1
  Cr  Cr17  1  0.33450295  0.66568607  0.33278226  1
  Cr  Cr18  1  0.66508561  0.99890606  0.00341673  1
  Fe  Fe19  1  0.83467325  0.16760673  0.16751106  1
  Cr  Cr20  1  0.66559471  0.99879657  0.32831927  1
  Cr  Cr21  1  0.66666634  0.33159076  0.99595312  1
  Cr  Cr22  1  0.83435839  0.50044319  0.16335635  1
  Cr  Cr23  1  0.66816942  0.33395769  0.33482063  1
  Ni  Ni24  1  0.66749078  0.66690680  0.00237080  1
  Fe  Fe25  1  0.83272917  0.83202955  0.16487284  1
  Cr  Cr26  1  0.66654476  0.66717492  0.33252230  1
  Cr  Cr27  1  0.16589402  0.16561366  0.49591221  1
  Cr  Cr28  1  0.00159160  0.00329697  0.66917572  1
  Ni  Ni29  1  0.16996452  0.16738983  0.83570579  1
  Cr  Cr30  1  0.16702326  0.49916222  0.49757850  1
  Cr  Cr31  1  0.99933196  0.33589079  0.66964628  1
  Cr  Cr32  1  0.16772473  0.50361017  0.83829153  1
  Cr  Cr33  1  0.16668055  0.83372613  0.50503129  1
  Fe  Fe34  1  0.00058185  0.66446302  0.66762968  1
  Cr  Cr35  1  0.16696162  0.83277790  0.83136261  1
  Cr  Cr36  1  0.49940256  0.16722278  0.50323768  1
  Fe  Fe37  1  0.33276377  0.00135471  0.66983398  1
  Ni  Ni38  1  0.49703978  0.16847636  0.83206100  1
  Cr  Cr39  1  0.50053866  0.49754755  0.49939762  1
  Cr  Cr40  1  0.33107798  0.33365562  0.66940374  1
  Cr  Cr41  1  0.50072465  0.50012806  0.83751028  1
  Cr  Cr42  1  0.49821057  0.83439859  0.50181191  1
  Ni  Ni43  1  0.33358597  0.66626309  0.66609687  1
  Cr  Cr44  1  0.49879429  0.83272837  0.83506728  1
  Cr  Cr45  1  0.83262518  0.16823629  0.49847006  1
  Cr  Cr46  1  0.66479140  0.00112880  0.66894056  1
  Cr  Cr47  1  0.83070458  0.16766388  0.83340323  1
  Ni  Ni48  1  0.83522432  0.49856826  0.50227585  1
  Fe  Fe49  1  0.66651842  0.33541627  0.66881238  1
  Ni  Ni50  1  0.83304081  0.50181455  0.83344362  1
  Cr  Cr51  1  0.83541295  0.83507991  0.49989201  1
  Cr  Cr52  1  0.66792689  0.66414814  0.66518193  1
  Cr  Cr53  1  0.83426795  0.83024321  0.83635459  1
" 