334,Ni60Fe20Cr20_4,-214.344030860717, 164.750639553215,Ni60Fe20Cr20,"# generated using pymatgen
 data_Cr17(FeNi)5
_symmetry_space_group_name_H-M   'P 1'
_cell_length_a   7.46704761
_cell_length_b   7.46704761
_cell_length_c   10.56000000
_cell_angle_alpha   90.00000000
_cell_angle_beta   90.00000000
_cell_angle_gamma   90.00000000
_symmetry_Int_Tables_number   1
_chemical_formula_structural   Cr17(FeNi)5
_chemical_formula_sum   'Cr34 Fe10 Ni10'
_cell_volume   588.79180800
_cell_formula_units_Z   2
loop_
 _symmetry_equiv_pos_site_id
 _symmetry_equiv_pos_as_xyz
  1  'x, y, z'
loop_
 _atom_site_type_symbol
 _atom_site_label
 _atom_site_symmetry_multiplicity
 _atom_site_fract_x
 _atom_site_fract_y
 _atom_site_fract_z
 _atom_site_occupancy
  Cr  Cr0  1  0.99765951  0.99834191  0.99712430  1
  Cr  Cr1  1  0.16739859  0.16922345  0.16551364  1
  Cr  Cr2  1  0.99960559  0.99910969  0.33529900  1
  Ni  Ni3  1  0.00002215  0.33421849  0.99994849  1
  Cr  Cr4  1  0.16684788  0.49857704  0.16581297  1
  Cr  Cr5  1  0.99832626  0.33463701  0.33308951  1
  Cr  Cr6  1  0.00063279  0.66560035  0.99939856  1
  Cr  Cr7  1  0.16757361  0.83041725  0.16712139  1
  Fe  Fe8  1  0.99622635  0.66730924  0.33579414  1
  Cr  Cr9  1  0.33480406  0.99953301  0.00115614  1
  Fe  Fe10  1  0.50171578  0.16961165  0.16430394  1
  Cr  Cr11  1  0.33496947  0.00106700  0.33262085  1
  Ni  Ni12  1  0.33690370  0.33636650  0.00118752  1
  Cr  Cr13  1  0.49967888  0.50303441  0.16624574  1
  Cr  Cr14  1  0.33659644  0.33086400  0.33595950  1
  Ni  Ni15  1  0.33580313  0.66377355  0.99752209  1
  Cr  Cr16  1  0.50142501  0.83291338  0.16461712  1
  Cr  Cr17  1  0.33222308  0.66576772  0.33521906  1
  Ni  Ni18  1  0.66534335  0.00168632  0.00155624  1
  Cr  Cr19  1  0.83338296  0.16743525  0.16089295  1
  Cr  Cr20  1  0.66654233  0.00230842  0.33200235  1
  Fe  Fe21  1  0.66415344  0.33545258  0.99874693  1
  Cr  Cr22  1  0.83273825  0.50027720  0.16600310  1
  Cr  Cr23  1  0.66655070  0.33360145  0.33537457  1
  Fe  Fe24  1  0.66505245  0.66565506  0.99831360  1
  Cr  Cr25  1  0.82974386  0.83168887  0.16837719  1
  Fe  Fe26  1  0.66824405  0.66596360  0.33663809  1
  Ni  Ni27  1  0.16765585  0.16381158  0.50085698  1
  Fe  Fe28  1  0.00005095  0.99921803  0.66559727  1
  Cr  Cr29  1  0.16557171  0.16715242  0.83251053  1
  Cr  Cr30  1  0.16473386  0.49820858  0.49781667  1
  Cr  Cr31  1  0.99930503  0.33550015  0.66668783  1
  Cr  Cr32  1  0.17133940  0.49682704  0.83781098  1
  Fe  Fe33  1  0.16430491  0.83408119  0.49996030  1
  Cr  Cr34  1  0.00006786  0.66882653  0.66721621  1
  Fe  Fe35  1  0.16712307  0.83176274  0.83438888  1
  Ni  Ni36  1  0.49949574  0.16454237  0.50005243  1
  Cr  Cr37  1  0.33061329  0.99752836  0.66584152  1
  Cr  Cr38  1  0.50024141  0.16953998  0.83442461  1
  Fe  Fe39  1  0.50372603  0.49759094  0.50162440  1
  Cr  Cr40  1  0.33803331  0.33189281  0.66301535  1
  Ni  Ni41  1  0.50196613  0.50181817  0.83209585  1
  Cr  Cr42  1  0.50144638  0.83052141  0.50000855  1
  Cr  Cr43  1  0.33389673  0.66432614  0.66909180  1
  Cr  Cr44  1  0.50016445  0.83033592  0.83562315  1
  Cr  Cr45  1  0.83438505  0.16964467  0.50445201  1
  Cr  Cr46  1  0.66495646  0.00176759  0.66583252  1
  Cr  Cr47  1  0.83259247  0.16822515  0.83297895  1
  Ni  Ni48  1  0.83099643  0.50506073  0.50030172  1
  Ni  Ni49  1  0.66606635  0.33717196  0.66507763  1
  Cr  Cr50  1  0.83065403  0.49906134  0.83396688  1
  Fe  Fe51  1  0.83395789  0.83330137  0.50102515  1
  Ni  Ni52  1  0.66749317  0.66360999  0.66454800  1
  Cr  Cr53  1  0.82899839  0.83423844  0.83135485  1
" 