225,Ni60Fe20Cr20_9,-214.415275122481, 169.206449486225,Ni60Fe20Cr20,"# generated using pymatgen
 data_Cr17(FeNi)5
_symmetry_space_group_name_H-M   'P 1'
_cell_length_a   7.46704761
_cell_length_b   7.46704761
_cell_length_c   10.56000000
_cell_angle_alpha   90.00000000
_cell_angle_beta   90.00000000
_cell_angle_gamma   90.00000000
_symmetry_Int_Tables_number   1
_chemical_formula_structural   Cr17(FeNi)5
_chemical_formula_sum   'Cr34 Fe10 Ni10'
_cell_volume   588.79180800
_cell_formula_units_Z   2
loop_
 _symmetry_equiv_pos_site_id
 _symmetry_equiv_pos_as_xyz
  1  'x, y, z'
loop_
 _atom_site_type_symbol
 _atom_site_label
 _atom_site_symmetry_multiplicity
 _atom_site_fract_x
 _atom_site_fract_y
 _atom_site_fract_z
 _atom_site_occupancy
  Ni  Ni0  1  0.99508846  0.00036481  0.00094944  1
  Ni  Ni1  1  0.15891050  0.16776008  0.16552900  1
  Cr  Cr2  1  0.99920851  0.00110883  0.33398814  1
  Ni  Ni3  1  0.99902265  0.33009268  0.00414631  1
  Fe  Fe4  1  0.16553119  0.49791638  0.16666344  1
  Fe  Fe5  1  0.00086700  0.33376504  0.33294627  1
  Cr  Cr6  1  0.99836775  0.66706875  0.99924108  1
  Cr  Cr7  1  0.16563253  0.83590188  0.16770280  1
  Cr  Cr8  1  0.99854959  0.66519944  0.33607287  1
  Cr  Cr9  1  0.33054276  0.00107041  0.99794126  1
  Cr  Cr10  1  0.50073354  0.16530253  0.16672334  1
  Cr  Cr11  1  0.33256618  0.00465018  0.33681476  1
  Cr  Cr12  1  0.33070599  0.33322535  0.00299200  1
  Ni  Ni13  1  0.50231388  0.49905979  0.16630009  1
  Cr  Cr14  1  0.33145021  0.33279300  0.33029308  1
  Cr  Cr15  1  0.33514575  0.66414166  0.00126172  1
  Cr  Cr16  1  0.50075330  0.83235230  0.16794207  1
  Cr  Cr17  1  0.33281793  0.66178920  0.33094205  1
  Fe  Fe18  1  0.66793023  0.99890853  0.99885683  1
  Fe  Fe19  1  0.83298880  0.16471819  0.16534571  1
  Cr  Cr20  1  0.66914085  0.00027919  0.33570740  1
  Cr  Cr21  1  0.66579769  0.33475588  0.99901705  1
  Cr  Cr22  1  0.83378644  0.49690679  0.16821957  1
  Cr  Cr23  1  0.66613665  0.33416545  0.33678209  1
  Cr  Cr24  1  0.66786764  0.66823445  0.99996375  1
  Fe  Fe25  1  0.83329814  0.83590414  0.16657370  1
  Cr  Cr26  1  0.66954501  0.66580354  0.33365975  1
  Cr  Cr27  1  0.16713810  0.16954974  0.50104374  1
  Cr  Cr28  1  0.99845483  0.99846949  0.66638839  1
  Cr  Cr29  1  0.16302863  0.16823526  0.83328108  1
  Ni  Ni30  1  0.16437689  0.49833193  0.50043782  1
  Ni  Ni31  1  0.00307193  0.33653330  0.66377280  1
  Cr  Cr32  1  0.16506382  0.49877041  0.83310586  1
  Cr  Cr33  1  0.16753663  0.82919839  0.50131105  1
  Fe  Fe34  1  0.00195974  0.66393586  0.66367782  1
  Cr  Cr35  1  0.16726850  0.83175635  0.83049901  1
  Ni  Ni36  1  0.50158053  0.17073221  0.50305710  1
  Cr  Cr37  1  0.33460013  0.00362224  0.66498129  1
  Cr  Cr38  1  0.50132983  0.16708024  0.83065797  1
  Cr  Cr39  1  0.49863532  0.49953252  0.50198450  1
  Ni  Ni40  1  0.33196707  0.33701628  0.66555429  1
  Cr  Cr41  1  0.50017326  0.50108017  0.83127044  1
  Cr  Cr42  1  0.49978783  0.83420399  0.49789067  1
  Fe  Fe43  1  0.33270220  0.66566893  0.66654648  1
  Ni  Ni44  1  0.50115484  0.83304027  0.83345120  1
  Cr  Cr45  1  0.83387590  0.16962743  0.50041665  1
  Cr  Cr46  1  0.66749979  0.99865247  0.66633398  1
  Cr  Cr47  1  0.83516604  0.16861631  0.83556835  1
  Fe  Fe48  1  0.83627746  0.50001433  0.50261905  1
  Fe  Fe49  1  0.66770028  0.33252335  0.66494547  1
  Cr  Cr50  1  0.83644990  0.49741392  0.82882726  1
  Ni  Ni51  1  0.83543434  0.83128272  0.50044853  1
  Cr  Cr52  1  0.67016637  0.66773696  0.66599666  1
  Fe  Fe53  1  0.83290067  0.83413641  0.83335698  1
" 