99,Ni60Fe20Cr20_10,-214.174443931673, 169.89426084922,Ni60Fe20Cr20,"# generated using pymatgen
 data_Cr17(FeNi)5
_symmetry_space_group_name_H-M   'P 1'
_cell_length_a   7.46704761
_cell_length_b   7.46704761
_cell_length_c   10.56000000
_cell_angle_alpha   90.00000000
_cell_angle_beta   90.00000000
_cell_angle_gamma   90.00000000
_symmetry_Int_Tables_number   1
_chemical_formula_structural   Cr17(FeNi)5
_chemical_formula_sum   'Cr34 Fe10 Ni10'
_cell_volume   588.79180800
_cell_formula_units_Z   2
loop_
 _symmetry_equiv_pos_site_id
 _symmetry_equiv_pos_as_xyz
  1  'x, y, z'
loop_
 _atom_site_type_symbol
 _atom_site_label
 _atom_site_symmetry_multiplicity
 _atom_site_fract_x
 _atom_site_fract_y
 _atom_site_fract_z
 _atom_site_occupancy
  Cr  Cr0  1  0.99998030  0.00110978  0.00165408  1
  Cr  Cr1  1  0.16748903  0.16858543  0.16650442  1
  Fe  Fe2  1  0.99965513  0.99906994  0.33533481  1
  Fe  Fe3  1  0.00310813  0.33675551  0.00071587  1
  Fe  Fe4  1  0.17004486  0.50209444  0.16529690  1
  Cr  Cr5  1  0.99932213  0.33381850  0.33578639  1
  Cr  Cr6  1  0.00077195  0.67019607  0.00096738  1
  Fe  Fe7  1  0.16587006  0.83277440  0.16793694  1
  Cr  Cr8  1  0.99943913  0.66934036  0.33603376  1
  Cr  Cr9  1  0.33201441  0.99915468  0.99721858  1
  Cr  Cr10  1  0.49951239  0.16551230  0.16815590  1
  Cr  Cr11  1  0.33114435  0.99871927  0.33711098  1
  Ni  Ni12  1  0.33392590  0.33680238  0.00050809  1
  Fe  Fe13  1  0.49763800  0.49848933  0.16643904  1
  Cr  Cr14  1  0.33573166  0.33393318  0.33354859  1
  Ni  Ni15  1  0.33212326  0.66369066  0.99904889  1
  Cr  Cr16  1  0.49849201  0.83054727  0.16654449  1
  Cr  Cr17  1  0.33261474  0.66665150  0.33523539  1
  Cr  Cr18  1  0.66681073  0.99824973  0.99880699  1
  Cr  Cr19  1  0.83444923  0.16751127  0.16709010  1
  Cr  Cr20  1  0.66910568  0.99985185  0.33526939  1
  Cr  Cr21  1  0.66508399  0.33350970  0.00083264  1
  Cr  Cr22  1  0.83536160  0.50202739  0.16697370  1
  Fe  Fe23  1  0.66907853  0.33404264  0.33479573  1
  Cr  Cr24  1  0.66427474  0.66507872  0.99994762  1
  Fe  Fe25  1  0.83461428  0.83535471  0.16837652  1
  Cr  Cr26  1  0.66817403  0.66533953  0.33412516  1
  Cr  Cr27  1  0.16485288  0.16726298  0.50126402  1
  Cr  Cr28  1  0.99909726  0.99991662  0.66394788  1
  Cr  Cr29  1  0.16588833  0.17128239  0.83319413  1
  Cr  Cr30  1  0.16401153  0.50035980  0.50220663  1
  Ni  Ni31  1  0.99558864  0.33292042  0.66521722  1
  Cr  Cr32  1  0.16536077  0.50145685  0.83271647  1
  Ni  Ni33  1  0.16628288  0.83401733  0.49924692  1
  Cr  Cr34  1  0.99749082  0.66860551  0.66265853  1
  Fe  Fe35  1  0.16581364  0.83383886  0.83271162  1
  Cr  Cr36  1  0.50345214  0.16481429  0.50021025  1
  Cr  Cr37  1  0.33360066  0.99745312  0.66612691  1
  Cr  Cr38  1  0.50218800  0.16294532  0.83113038  1
  Cr  Cr39  1  0.50264562  0.50070848  0.49948942  1
  Cr  Cr40  1  0.33599420  0.33342078  0.66636314  1
  Fe  Fe41  1  0.49982143  0.49800155  0.83302292  1
  Ni  Ni42  1  0.50144174  0.83359567  0.50162510  1
  Cr  Cr43  1  0.33292330  0.66879770  0.66624141  1
  Ni  Ni44  1  0.49620193  0.82855590  0.83272576  1
  Ni  Ni45  1  0.83322079  0.16696664  0.50064925  1
  Fe  Fe46  1  0.66767980  0.99838208  0.66446692  1
  Cr  Cr47  1  0.83470515  0.16866551  0.83211818  1
  Ni  Ni48  1  0.83284928  0.49786175  0.50127623  1
  Ni  Ni49  1  0.67145818  0.33095066  0.66327480  1
  Cr  Cr50  1  0.83490160  0.49859485  0.83087530  1
  Ni  Ni51  1  0.83219788  0.83403540  0.49814744  1
  Cr  Cr52  1  0.66574944  0.66508599  0.66569962  1
  Cr  Cr53  1  0.82875182  0.83329296  0.83313518  1
" 