298,Ni60Fe20Cr20_3,-214.300241239905, 171.119654863833,Ni60Fe20Cr20,"# generated using pymatgen
 data_Cr17(FeNi)5
_symmetry_space_group_name_H-M   'P 1'
_cell_length_a   7.46704761
_cell_length_b   7.46704761
_cell_length_c   10.56000000
_cell_angle_alpha   90.00000000
_cell_angle_beta   90.00000000
_cell_angle_gamma   90.00000000
_symmetry_Int_Tables_number   1
_chemical_formula_structural   Cr17(FeNi)5
_chemical_formula_sum   'Cr34 Fe10 Ni10'
_cell_volume   588.79180800
_cell_formula_units_Z   2
loop_
 _symmetry_equiv_pos_site_id
 _symmetry_equiv_pos_as_xyz
  1  'x, y, z'
loop_
 _atom_site_type_symbol
 _atom_site_label
 _atom_site_symmetry_multiplicity
 _atom_site_fract_x
 _atom_site_fract_y
 _atom_site_fract_z
 _atom_site_occupancy
  Fe  Fe0  1  0.00006719  0.00137506  0.00001935  1
  Fe  Fe1  1  0.16605559  0.16322591  0.16650446  1
  Fe  Fe2  1  0.99772443  0.00162611  0.33026428  1
  Cr  Cr3  1  0.99899922  0.32924248  0.99975308  1
  Cr  Cr4  1  0.16959988  0.49765768  0.16725967  1
  Cr  Cr5  1  0.99763292  0.33112739  0.32988630  1
  Cr  Cr6  1  0.99827924  0.66768599  0.00109756  1
  Cr  Cr7  1  0.16540949  0.83522568  0.16530843  1
  Cr  Cr8  1  0.99694289  0.66881437  0.33142517  1
  Ni  Ni9  1  0.33083166  0.00015581  0.99811148  1
  Cr  Cr10  1  0.49983172  0.16669742  0.16788492  1
  Cr  Cr11  1  0.33183160  0.99888223  0.33413476  1
  Cr  Cr12  1  0.33320389  0.32812505  0.99966844  1
  Ni  Ni13  1  0.50009355  0.49807979  0.16876282  1
  Ni  Ni14  1  0.33340020  0.33168235  0.33051323  1
  Cr  Cr15  1  0.33489458  0.66942659  0.00119486  1
  Ni  Ni16  1  0.50109377  0.83567891  0.16440178  1
  Cr  Cr17  1  0.33660063  0.66826183  0.33269986  1
  Fe  Fe18  1  0.66615979  0.00163866  0.00232609  1
  Ni  Ni19  1  0.83379634  0.16357704  0.16607326  1
  Cr  Cr20  1  0.66706417  0.99848935  0.33399037  1
  Cr  Cr21  1  0.66858341  0.33270260  0.00234725  1
  Fe  Fe22  1  0.83215245  0.49901859  0.16718428  1
  Ni  Ni23  1  0.66790771  0.33339687  0.32945939  1
  Cr  Cr24  1  0.66750307  0.66727753  0.00763176  1
  Ni  Ni25  1  0.83366131  0.83996100  0.16548487  1
  Cr  Cr26  1  0.66672135  0.66716925  0.32869775  1
  Cr  Cr27  1  0.16553050  0.16928011  0.49482646  1
  Cr  Cr28  1  0.00073259  0.00315803  0.66744633  1
  Fe  Fe29  1  0.16724544  0.16341511  0.83463877  1
  Cr  Cr30  1  0.16674275  0.49971392  0.50131582  1
  Fe  Fe31  1  0.00115435  0.33244843  0.66848634  1
  Cr  Cr32  1  0.16630690  0.50247587  0.83126689  1
  Cr  Cr33  1  0.16469165  0.83270985  0.49874800  1
  Fe  Fe34  1  0.00110687  0.66891534  0.66802834  1
  Ni  Ni35  1  0.16474558  0.83624322  0.83461205  1
  Cr  Cr36  1  0.50117317  0.16728407  0.49761772  1
  Cr  Cr37  1  0.33364570  0.99960161  0.66608384  1
  Ni  Ni38  1  0.50218694  0.16214572  0.83507717  1
  Cr  Cr39  1  0.49966643  0.49725536  0.49608136  1
  Cr  Cr40  1  0.33347214  0.32913443  0.66902857  1
  Cr  Cr41  1  0.50014082  0.49713864  0.83656065  1
  Ni  Ni42  1  0.50134718  0.83489175  0.50047831  1
  Cr  Cr43  1  0.33462404  0.66987097  0.66650234  1
  Cr  Cr44  1  0.50027810  0.83635484  0.83644866  1
  Cr  Cr45  1  0.83142531  0.16693135  0.49996498  1
  Fe  Fe46  1  0.66458970  0.00064898  0.66744581  1
  Fe  Fe47  1  0.83238928  0.16455466  0.83480198  1
  Cr  Cr48  1  0.83517203  0.49915083  0.50080383  1
  Cr  Cr49  1  0.66824166  0.33086758  0.66899110  1
  Cr  Cr50  1  0.83497665  0.50053793  0.83214440  1
  Cr  Cr51  1  0.83307098  0.83521310  0.50084458  1
  Cr  Cr52  1  0.66592808  0.66792582  0.66484449  1
  Cr  Cr53  1  0.83337310  0.83593092  0.83482572  1
" 