258,Ni80Fe10Cr10_6,-206.368535315282, 188.261166370001,Ni80Fe10Cr10,"# generated using pymatgen
 data_Cr44(FeNi)5
_symmetry_space_group_name_H-M   'P 1'
_cell_length_a   7.46704761
_cell_length_b   7.46704761
_cell_length_c   10.56000000
_cell_angle_alpha   90.00000000
_cell_angle_beta   90.00000000
_cell_angle_gamma   90.00000000
_symmetry_Int_Tables_number   1
_chemical_formula_structural   Cr44(FeNi)5
_chemical_formula_sum   'Cr44 Fe5 Ni5'
_cell_volume   588.79180800
_cell_formula_units_Z   1
loop_
 _symmetry_equiv_pos_site_id
 _symmetry_equiv_pos_as_xyz
  1  'x, y, z'
loop_
 _atom_site_type_symbol
 _atom_site_label
 _atom_site_symmetry_multiplicity
 _atom_site_fract_x
 _atom_site_fract_y
 _atom_site_fract_z
 _atom_site_occupancy
  Cr  Cr0  1  0.99990686  0.99985102  0.99954797  1
  Cr  Cr1  1  0.16499842  0.16696885  0.16727067  1
  Cr  Cr2  1  0.99871575  0.00150700  0.33237422  1
  Cr  Cr3  1  0.99884201  0.33178836  0.00025257  1
  Cr  Cr4  1  0.16597780  0.49964534  0.16518715  1
  Fe  Fe5  1  0.99781080  0.33256690  0.33153540  1
  Fe  Fe6  1  0.00018503  0.66608778  0.99886302  1
  Cr  Cr7  1  0.16704738  0.83279558  0.16461149  1
  Cr  Cr8  1  0.99968339  0.66572160  0.33199110  1
  Cr  Cr9  1  0.33366733  0.00218105  0.99937013  1
  Fe  Fe10  1  0.50346462  0.16876496  0.16598209  1
  Cr  Cr11  1  0.33349486  0.00179600  0.33153417  1
  Cr  Cr12  1  0.33717587  0.33201229  0.99970492  1
  Cr  Cr13  1  0.50171673  0.49985696  0.16638120  1
  Cr  Cr14  1  0.33413844  0.33317248  0.33122837  1
  Cr  Cr15  1  0.33153451  0.66616383  0.99881492  1
  Cr  Cr16  1  0.50006504  0.83399202  0.16702058  1
  Cr  Cr17  1  0.33283906  0.66527663  0.33433972  1
  Cr  Cr18  1  0.66656594  0.00512434  0.99990497  1
  Ni  Ni19  1  0.83099291  0.16963749  0.16776474  1
  Cr  Cr20  1  0.66793542  0.00250718  0.33196777  1
  Ni  Ni21  1  0.66699848  0.33151210  0.00204632  1
  Cr  Cr22  1  0.83277914  0.49804381  0.16526264  1
  Fe  Fe23  1  0.66820561  0.33184640  0.33151742  1
  Cr  Cr24  1  0.66664973  0.66457560  0.99828996  1
  Cr  Cr25  1  0.83277617  0.83435958  0.16386369  1
  Cr  Cr26  1  0.66744093  0.66491885  0.33587611  1
  Cr  Cr27  1  0.16585950  0.16889382  0.50179920  1
  Cr  Cr28  1  0.00013613  0.99926726  0.66797414  1
  Cr  Cr29  1  0.16826360  0.16677002  0.83048000  1
  Cr  Cr30  1  0.16572933  0.49635380  0.50051138  1
  Fe  Fe31  1  0.00091520  0.33399464  0.66771263  1
  Cr  Cr32  1  0.16632574  0.49897662  0.83369325  1
  Cr  Cr33  1  0.16747231  0.83485842  0.49912868  1
  Cr  Cr34  1  0.00040132  0.66692844  0.66884833  1
  Ni  Ni35  1  0.16625512  0.83280812  0.83596480  1
  Cr  Cr36  1  0.49936214  0.16697287  0.50022827  1
  Cr  Cr37  1  0.33318721  0.00150274  0.66872023  1
  Ni  Ni38  1  0.50008457  0.16919733  0.83476248  1
  Cr  Cr39  1  0.49950016  0.49812994  0.50082676  1
  Ni  Ni40  1  0.33275521  0.33212296  0.66839676  1
  Cr  Cr41  1  0.50033290  0.49754188  0.83297331  1
  Cr  Cr42  1  0.49996875  0.83400801  0.50026775  1
  Cr  Cr43  1  0.33201706  0.66432515  0.66636436  1
  Cr  Cr44  1  0.49868656  0.83519172  0.83242812  1
  Cr  Cr45  1  0.83511276  0.16852386  0.50037442  1
  Cr  Cr46  1  0.66705373  0.00122358  0.66831461  1
  Cr  Cr47  1  0.83219506  0.16853533  0.83281305  1
  Cr  Cr48  1  0.83448353  0.49691086  0.49979076  1
  Cr  Cr49  1  0.66462257  0.33268921  0.66824239  1
  Cr  Cr50  1  0.83316359  0.49832392  0.83524807  1
  Cr  Cr51  1  0.83275537  0.83427622  0.50054130  1
  Cr  Cr52  1  0.66788155  0.66604972  0.66566041  1
  Cr  Cr53  1  0.83387079  0.83294958  0.83543126  1
" 