441,Ni80Fe10Cr10_8,-206.330151398693, 188.313285484417,Ni80Fe10Cr10,"# generated using pymatgen
 data_Cr44(FeNi)5
_symmetry_space_group_name_H-M   'P 1'
_cell_length_a   7.46704761
_cell_length_b   7.46704761
_cell_length_c   10.56000000
_cell_angle_alpha   90.00000000
_cell_angle_beta   90.00000000
_cell_angle_gamma   90.00000000
_symmetry_Int_Tables_number   1
_chemical_formula_structural   Cr44(FeNi)5
_chemical_formula_sum   'Cr44 Fe5 Ni5'
_cell_volume   588.79180800
_cell_formula_units_Z   1
loop_
 _symmetry_equiv_pos_site_id
 _symmetry_equiv_pos_as_xyz
  1  'x, y, z'
loop_
 _atom_site_type_symbol
 _atom_site_label
 _atom_site_symmetry_multiplicity
 _atom_site_fract_x
 _atom_site_fract_y
 _atom_site_fract_z
 _atom_site_occupancy
  Cr  Cr0  1  0.00274713  0.00027218  0.00194828  1
  Cr  Cr1  1  0.16731268  0.16744093  0.16610075  1
  Cr  Cr2  1  0.00121037  0.99889788  0.33176288  1
  Ni  Ni3  1  0.99958620  0.33421316  0.00098847  1
  Cr  Cr4  1  0.16838715  0.49956380  0.16763108  1
  Cr  Cr5  1  0.00080898  0.33397450  0.33175301  1
  Cr  Cr6  1  0.00188065  0.66597836  0.99980814  1
  Ni  Ni7  1  0.17041982  0.83068068  0.16819230  1
  Cr  Cr8  1  0.00193605  0.66726252  0.33353693  1
  Cr  Cr9  1  0.33279669  0.99772328  0.00126255  1
  Cr  Cr10  1  0.49891357  0.16882060  0.16756356  1
  Cr  Cr11  1  0.33269009  0.99801946  0.33081577  1
  Cr  Cr12  1  0.33131580  0.33407347  0.99883216  1
  Fe  Fe13  1  0.49891123  0.50191297  0.16773179  1
  Ni  Ni14  1  0.33427666  0.33495101  0.33359289  1
  Cr  Cr15  1  0.33517782  0.66784828  0.00289849  1
  Fe  Fe16  1  0.49966842  0.83021421  0.16698837  1
  Fe  Fe17  1  0.33442329  0.66527635  0.33065552  1
  Cr  Cr18  1  0.66418952  0.99805410  0.00128087  1
  Cr  Cr19  1  0.83291146  0.16759094  0.16531300  1
  Cr  Cr20  1  0.66612653  0.99916760  0.33269086  1
  Cr  Cr21  1  0.66600091  0.33581175  0.99995746  1
  Cr  Cr22  1  0.83245391  0.50048287  0.16367174  1
  Cr  Cr23  1  0.66637403  0.33478014  0.33395339  1
  Ni  Ni24  1  0.66538001  0.66642857  0.00167755  1
  Cr  Cr25  1  0.83404176  0.83212886  0.16500612  1
  Cr  Cr26  1  0.66633009  0.66652017  0.33198513  1
  Cr  Cr27  1  0.16805450  0.16751277  0.49905844  1
  Fe  Fe28  1  0.00027070  0.00119399  0.66699260  1
  Cr  Cr29  1  0.16592869  0.16799515  0.83448777  1
  Cr  Cr30  1  0.16876981  0.50000951  0.49905907  1
  Cr  Cr31  1  0.99912275  0.33394607  0.66684513  1
  Cr  Cr32  1  0.16641576  0.49945269  0.83261510  1
  Cr  Cr33  1  0.16631456  0.83240977  0.50088188  1
  Fe  Fe34  1  0.00097116  0.66686993  0.66687936  1
  Cr  Cr35  1  0.16579600  0.83287355  0.83163808  1
  Cr  Cr36  1  0.49741438  0.16775142  0.50044111  1
  Cr  Cr37  1  0.33238409  0.00050323  0.66811403  1
  Cr  Cr38  1  0.49791610  0.16757423  0.83154151  1
  Cr  Cr39  1  0.49740981  0.49865056  0.49860878  1
  Ni  Ni40  1  0.32981388  0.33326847  0.66611820  1
  Cr  Cr41  1  0.49903681  0.49975613  0.83350222  1
  Cr  Cr42  1  0.49951028  0.83247111  0.49798360  1
  Cr  Cr43  1  0.33334763  0.66549987  0.66644018  1
  Cr  Cr44  1  0.50162504  0.83222604  0.83553754  1
  Cr  Cr45  1  0.83347179  0.16546956  0.49799571  1
  Cr  Cr46  1  0.66690069  0.00037171  0.66606492  1
  Cr  Cr47  1  0.83330858  0.16629940  0.83668513  1
  Cr  Cr48  1  0.83461763  0.50190913  0.50031416  1
  Cr  Cr49  1  0.66521756  0.33372132  0.66584267  1
  Cr  Cr50  1  0.83369871  0.50185606  0.83613665  1
  Cr  Cr51  1  0.83493685  0.83361871  0.50252375  1
  Cr  Cr52  1  0.66759915  0.66600342  0.66723626  1
  Cr  Cr53  1  0.83387624  0.83269758  0.83285707  1
" 