237,Ni80Fe10Cr10_10,-206.482500476924, 188.620436140556,Ni80Fe10Cr10,"# generated using pymatgen
 data_Cr44(FeNi)5
_symmetry_space_group_name_H-M   'P 1'
_cell_length_a   7.46704761
_cell_length_b   7.46704761
_cell_length_c   10.56000000
_cell_angle_alpha   90.00000000
_cell_angle_beta   90.00000000
_cell_angle_gamma   90.00000000
_symmetry_Int_Tables_number   1
_chemical_formula_structural   Cr44(FeNi)5
_chemical_formula_sum   'Cr44 Fe5 Ni5'
_cell_volume   588.79180800
_cell_formula_units_Z   1
loop_
 _symmetry_equiv_pos_site_id
 _symmetry_equiv_pos_as_xyz
  1  'x, y, z'
loop_
 _atom_site_type_symbol
 _atom_site_label
 _atom_site_symmetry_multiplicity
 _atom_site_fract_x
 _atom_site_fract_y
 _atom_site_fract_z
 _atom_site_occupancy
  Cr  Cr0  1  0.99944818  0.00054325  0.99894607  1
  Cr  Cr1  1  0.16724337  0.16476508  0.16779008  1
  Ni  Ni2  1  0.00419820  0.00201977  0.33602168  1
  Fe  Fe3  1  0.00132721  0.33325645  0.00134713  1
  Fe  Fe4  1  0.16638461  0.49900745  0.16617030  1
  Cr  Cr5  1  0.00216239  0.33316260  0.33313093  1
  Cr  Cr6  1  0.00180874  0.66588968  0.00111196  1
  Cr  Cr7  1  0.16703035  0.83484195  0.16984353  1
  Cr  Cr8  1  0.00231462  0.66496723  0.33445639  1
  Cr  Cr9  1  0.33450439  0.99887616  0.99856656  1
  Cr  Cr10  1  0.49772389  0.16568003  0.16880540  1
  Ni  Ni11  1  0.33126644  0.00010536  0.33497349  1
  Cr  Cr12  1  0.33199487  0.33397980  0.00108108  1
  Cr  Cr13  1  0.49998963  0.49981802  0.16765130  1
  Cr  Cr14  1  0.33165011  0.33384852  0.33560627  1
  Cr  Cr15  1  0.33316812  0.66692652  0.00095112  1
  Cr  Cr16  1  0.49826680  0.83431970  0.16829681  1
  Cr  Cr17  1  0.33267660  0.66564910  0.33394487  1
  Cr  Cr18  1  0.66617377  0.99948144  0.99804875  1
  Cr  Cr19  1  0.83469130  0.16617597  0.16846617  1
  Cr  Cr20  1  0.66552253  0.99983355  0.33440980  1
  Cr  Cr21  1  0.66724058  0.33170187  0.00144900  1
  Cr  Cr22  1  0.83368724  0.50008142  0.16544041  1
  Cr  Cr23  1  0.66576682  0.33381594  0.33452532  1
  Cr  Cr24  1  0.66573367  0.66876735  0.99899377  1
  Cr  Cr25  1  0.83514521  0.83340228  0.17102913  1
  Cr  Cr26  1  0.66433429  0.66589760  0.33589634  1
  Ni  Ni27  1  0.16946691  0.16835884  0.49944071  1
  Cr  Cr28  1  0.00115704  0.00147442  0.66484750  1
  Cr  Cr29  1  0.16742642  0.16800543  0.83212515  1
  Fe  Fe30  1  0.16910405  0.49862252  0.50116839  1
  Cr  Cr31  1  0.00216267  0.33287713  0.66488446  1
  Cr  Cr32  1  0.16668798  0.49892637  0.83334160  1
  Cr  Cr33  1  0.16788923  0.83691127  0.49787582  1
  Cr  Cr34  1  0.00188932  0.66623022  0.66469157  1
  Cr  Cr35  1  0.16813956  0.83318321  0.83273258  1
  Cr  Cr36  1  0.49651421  0.16531932  0.49909273  1
  Cr  Cr37  1  0.33417275  0.00012445  0.66706242  1
  Cr  Cr38  1  0.49826387  0.16791157  0.83239673  1
  Fe  Fe39  1  0.49631135  0.50024857  0.50090190  1
  Fe  Fe40  1  0.33205192  0.33433336  0.66323528  1
  Cr  Cr41  1  0.49984901  0.50016441  0.83119698  1
  Ni  Ni42  1  0.49675306  0.83203240  0.49843488  1
  Cr  Cr43  1  0.33387394  0.66704178  0.66534844  1
  Ni  Ni44  1  0.49928147  0.83270750  0.83317754  1
  Cr  Cr45  1  0.83627822  0.16595128  0.49804133  1
  Cr  Cr46  1  0.66523000  0.99881013  0.66735418  1
  Cr  Cr47  1  0.83410086  0.16875124  0.83315193  1
  Cr  Cr48  1  0.83232918  0.50019535  0.50050964  1
  Cr  Cr49  1  0.66510176  0.33249671  0.66405184  1
  Cr  Cr50  1  0.83351399  0.49945842  0.83391715  1
  Cr  Cr51  1  0.83328885  0.83330929  0.49813500  1
  Cr  Cr52  1  0.66400082  0.66809083  0.66504161  1
  Cr  Cr53  1  0.83370764  0.83164990  0.83088898  1
" 