274,Ni80Fe10Cr10_5,-206.375226742345, 189.981745062791,Ni80Fe10Cr10,"# generated using pymatgen
 data_Cr44(FeNi)5
_symmetry_space_group_name_H-M   'P 1'
_cell_length_a   7.46704761
_cell_length_b   7.46704761
_cell_length_c   10.56000000
_cell_angle_alpha   90.00000000
_cell_angle_beta   90.00000000
_cell_angle_gamma   90.00000000
_symmetry_Int_Tables_number   1
_chemical_formula_structural   Cr44(FeNi)5
_chemical_formula_sum   'Cr44 Fe5 Ni5'
_cell_volume   588.79180800
_cell_formula_units_Z   1
loop_
 _symmetry_equiv_pos_site_id
 _symmetry_equiv_pos_as_xyz
  1  'x, y, z'
loop_
 _atom_site_type_symbol
 _atom_site_label
 _atom_site_symmetry_multiplicity
 _atom_site_fract_x
 _atom_site_fract_y
 _atom_site_fract_z
 _atom_site_occupancy
  Cr  Cr0  1  0.99968250  0.00112197  0.99961636  1
  Cr  Cr1  1  0.16516355  0.16562989  0.16667069  1
  Ni  Ni2  1  0.99714027  0.00237530  0.33493619  1
  Cr  Cr3  1  0.00055785  0.33665151  0.99875578  1
  Fe  Fe4  1  0.16515602  0.50158031  0.16498626  1
  Cr  Cr5  1  0.99952595  0.33435526  0.33207413  1
  Ni  Ni6  1  0.00288125  0.66235757  0.00088757  1
  Cr  Cr7  1  0.16476197  0.83299117  0.16720598  1
  Cr  Cr8  1  0.99928973  0.66614523  0.33093796  1
  Cr  Cr9  1  0.33269434  0.00026601  0.99945350  1
  Cr  Cr10  1  0.50008946  0.16843954  0.16602568  1
  Cr  Cr11  1  0.33273356  0.99978995  0.33274650  1
  Cr  Cr12  1  0.32953362  0.33509580  0.99932644  1
  Cr  Cr13  1  0.50115533  0.49899814  0.16661765  1
  Cr  Cr14  1  0.33219105  0.33458857  0.33132243  1
  Ni  Ni15  1  0.32958957  0.66435946  0.00100881  1
  Cr  Cr16  1  0.49766986  0.83158750  0.16287085  1
  Cr  Cr17  1  0.33351505  0.66591025  0.33255222  1
  Cr  Cr18  1  0.66649114  0.99943138  0.99974906  1
  Cr  Cr19  1  0.83383253  0.16819460  0.16884210  1
  Cr  Cr20  1  0.66730090  0.99860814  0.33238928  1
  Cr  Cr21  1  0.66923050  0.33412321  0.00150675  1
  Ni  Ni22  1  0.83547990  0.49979072  0.16557805  1
  Fe  Fe23  1  0.66888693  0.33351948  0.33210666  1
  Cr  Cr24  1  0.66949372  0.66492304  0.99963988  1
  Cr  Cr25  1  0.83711405  0.83185219  0.16382209  1
  Cr  Cr26  1  0.66752111  0.66601983  0.33164225  1
  Cr  Cr27  1  0.16465077  0.16643127  0.49983504  1
  Cr  Cr28  1  0.99896323  0.00222086  0.66603068  1
  Fe  Fe29  1  0.16520899  0.16796227  0.83387406  1
  Cr  Cr30  1  0.16659919  0.50059733  0.49991484  1
  Cr  Cr31  1  0.00044425  0.33441510  0.66959710  1
  Fe  Fe32  1  0.16626153  0.50266782  0.83518386  1
  Cr  Cr33  1  0.16459851  0.83464424  0.49801192  1
  Cr  Cr34  1  0.99992769  0.66457789  0.66796935  1
  Cr  Cr35  1  0.16596909  0.83284509  0.83449288  1
  Cr  Cr36  1  0.50118804  0.16913280  0.49861621  1
  Cr  Cr37  1  0.33313399  0.00134654  0.66768489  1
  Cr  Cr38  1  0.49851112  0.16834766  0.83528794  1
  Cr  Cr39  1  0.50127025  0.49808911  0.49946429  1
  Cr  Cr40  1  0.33041545  0.33387527  0.66939671  1
  Cr  Cr41  1  0.50143993  0.49976942  0.83357588  1
  Cr  Cr42  1  0.49968492  0.83228241  0.50128636  1
  Cr  Cr43  1  0.33324816  0.66632966  0.66561855  1
  Cr  Cr44  1  0.49792706  0.83133305  0.83547865  1
  Fe  Fe45  1  0.83295729  0.16670664  0.49822092  1
  Cr  Cr46  1  0.66659257  0.99867202  0.66790008  1
  Cr  Cr47  1  0.83326244  0.16826741  0.83354272  1
  Cr  Cr48  1  0.83245153  0.49791860  0.49969694  1
  Cr  Cr49  1  0.66858481  0.33304465  0.66639367  1
  Ni  Ni50  1  0.83731356  0.49970733  0.83492162  1
  Cr  Cr51  1  0.83555776  0.83373064  0.50016292  1
  Cr  Cr52  1  0.66854181  0.66635503  0.66859771  1
  Cr  Cr53  1  0.83661435  0.83002390  0.83597311  1
" 