114,Ni80Fe10Cr10_0,-206.373504279248, 190.222798530564,Ni80Fe10Cr10,"# generated using pymatgen
 data_Cr44(FeNi)5
_symmetry_space_group_name_H-M   'P 1'
_cell_length_a   7.46704761
_cell_length_b   7.46704761
_cell_length_c   10.56000000
_cell_angle_alpha   90.00000000
_cell_angle_beta   90.00000000
_cell_angle_gamma   90.00000000
_symmetry_Int_Tables_number   1
_chemical_formula_structural   Cr44(FeNi)5
_chemical_formula_sum   'Cr44 Fe5 Ni5'
_cell_volume   588.79180800
_cell_formula_units_Z   1
loop_
 _symmetry_equiv_pos_site_id
 _symmetry_equiv_pos_as_xyz
  1  'x, y, z'
loop_
 _atom_site_type_symbol
 _atom_site_label
 _atom_site_symmetry_multiplicity
 _atom_site_fract_x
 _atom_site_fract_y
 _atom_site_fract_z
 _atom_site_occupancy
  Cr  Cr0  1  0.99739384  0.00127268  0.99956428  1
  Cr  Cr1  1  0.16675810  0.16503707  0.16805204  1
  Fe  Fe2  1  0.99935936  0.00022864  0.33381050  1
  Cr  Cr3  1  0.00035528  0.33143081  0.99643187  1
  Cr  Cr4  1  0.16590104  0.49907508  0.16658434  1
  Cr  Cr5  1  0.00083456  0.33182123  0.33550380  1
  Cr  Cr6  1  0.99699345  0.66681549  0.00061211  1
  Cr  Cr7  1  0.16476783  0.83450957  0.16835943  1
  Cr  Cr8  1  0.99717236  0.66535954  0.33230267  1
  Cr  Cr9  1  0.33355681  0.00226270  0.99814652  1
  Cr  Cr10  1  0.50263624  0.16906578  0.16594590  1
  Cr  Cr11  1  0.33624838  0.00240719  0.33372251  1
  Cr  Cr12  1  0.33144743  0.33201397  0.99864537  1
  Cr  Cr13  1  0.50183501  0.49720416  0.16612347  1
  Ni  Ni14  1  0.33406276  0.33216446  0.33305115  1
  Cr  Cr15  1  0.33362225  0.66567120  0.00065580  1
  Cr  Cr16  1  0.49890226  0.83497906  0.16608119  1
  Cr  Cr17  1  0.33425952  0.66327408  0.33368864  1
  Cr  Cr18  1  0.66882112  0.00010841  0.99820179  1
  Cr  Cr19  1  0.83295200  0.16799221  0.16824383  1
  Cr  Cr20  1  0.66928538  0.00067891  0.33453193  1
  Fe  Fe21  1  0.66849807  0.33242034  0.99779068  1
  Cr  Cr22  1  0.83113696  0.49759157  0.16591568  1
  Fe  Fe23  1  0.66569273  0.33336708  0.33502692  1
  Cr  Cr24  1  0.66787366  0.66972130  0.00054283  1
  Fe  Fe25  1  0.83326564  0.83505526  0.16797584  1
  Cr  Cr26  1  0.66654851  0.66839877  0.33321873  1
  Cr  Cr27  1  0.16564672  0.16473513  0.49849229  1
  Cr  Cr28  1  0.99821599  0.00282324  0.66713512  1
  Ni  Ni29  1  0.16344986  0.16441519  0.83383495  1
  Cr  Cr30  1  0.16613142  0.49993400  0.50016680  1
  Cr  Cr31  1  0.99971653  0.33039383  0.66796731  1
  Cr  Cr32  1  0.16555708  0.50076074  0.83315876  1
  Cr  Cr33  1  0.16663872  0.83388686  0.49919844  1
  Cr  Cr34  1  0.99850852  0.66576298  0.66718570  1
  Cr  Cr35  1  0.16548142  0.83442738  0.83259859  1
  Cr  Cr36  1  0.50336769  0.16920287  0.50037510  1
  Cr  Cr37  1  0.33330438  0.00286146  0.66821033  1
  Cr  Cr38  1  0.50275686  0.16833614  0.83349108  1
  Cr  Cr39  1  0.50114713  0.49770051  0.50063413  1
  Cr  Cr40  1  0.33187070  0.33196012  0.66794933  1
  Cr  Cr41  1  0.50257625  0.49943275  0.83301945  1
  Cr  Cr42  1  0.49880190  0.83455463  0.50237134  1
  Cr  Cr43  1  0.33337049  0.66552112  0.66556931  1
  Cr  Cr44  1  0.49933288  0.83339969  0.83163273  1
  Ni  Ni45  1  0.83273206  0.16781583  0.49940038  1
  Cr  Cr46  1  0.66925549  0.00203582  0.66733588  1
  Ni  Ni47  1  0.83350765  0.16714893  0.83225121  1
  Cr  Cr48  1  0.83105771  0.49591482  0.50169913  1
  Ni  Ni49  1  0.66928844  0.33079600  0.66644475  1
  Cr  Cr50  1  0.83109404  0.49795199  0.83229529  1
  Cr  Cr51  1  0.83572951  0.83533689  0.49981070  1
  Cr  Cr52  1  0.66753518  0.66768429  0.66630980  1
  Fe  Fe53  1  0.83374486  0.83528024  0.83273224  1
" 