90,Ni80Fe10Cr10_11,-206.385433276237, 189.133966932755,Ni80Fe10Cr10,"# generated using pymatgen
 data_Cr44(FeNi)5
_symmetry_space_group_name_H-M   'P 1'
_cell_length_a   7.46704761
_cell_length_b   7.46704761
_cell_length_c   10.56000000
_cell_angle_alpha   90.00000000
_cell_angle_beta   90.00000000
_cell_angle_gamma   90.00000000
_symmetry_Int_Tables_number   1
_chemical_formula_structural   Cr44(FeNi)5
_chemical_formula_sum   'Cr44 Fe5 Ni5'
_cell_volume   588.79180800
_cell_formula_units_Z   1
loop_
 _symmetry_equiv_pos_site_id
 _symmetry_equiv_pos_as_xyz
  1  'x, y, z'
loop_
 _atom_site_type_symbol
 _atom_site_label
 _atom_site_symmetry_multiplicity
 _atom_site_fract_x
 _atom_site_fract_y
 _atom_site_fract_z
 _atom_site_occupancy
  Cr  Cr0  1  0.99970889  0.00034529  0.99975821  1
  Cr  Cr1  1  0.16612322  0.16612200  0.16739035  1
  Ni  Ni2  1  0.99909057  0.99896079  0.33544385  1
  Cr  Cr3  1  0.00204606  0.33446722  0.99962417  1
  Fe  Fe4  1  0.16701921  0.49887188  0.16686416  1
  Cr  Cr5  1  0.00111720  0.33301833  0.33372884  1
  Cr  Cr6  1  0.00053792  0.66505893  0.00083173  1
  Cr  Cr7  1  0.16450087  0.83401715  0.16981955  1
  Cr  Cr8  1  0.00005551  0.66773220  0.33559678  1
  Cr  Cr9  1  0.33376499  0.00170880  0.00052718  1
  Cr  Cr10  1  0.49983378  0.16771937  0.16881312  1
  Fe  Fe11  1  0.32979216  0.99882756  0.33485313  1
  Ni  Ni12  1  0.33244868  0.33408552  0.00169762  1
  Cr  Cr13  1  0.50043203  0.49927315  0.16700430  1
  Cr  Cr14  1  0.33391197  0.33303033  0.33192647  1
  Cr  Cr15  1  0.33187516  0.66482645  0.00249970  1
  Cr  Cr16  1  0.49932766  0.83293717  0.16652034  1
  Cr  Cr17  1  0.33246176  0.66664231  0.33299127  1
  Cr  Cr18  1  0.66616708  0.00026671  0.99902884  1
  Cr  Cr19  1  0.83470008  0.16626630  0.16847534  1
  Cr  Cr20  1  0.66663400  0.99984734  0.33258932  1
  Cr  Cr21  1  0.66625670  0.33266926  0.99960815  1
  Cr  Cr22  1  0.83359731  0.50007100  0.16860065  1
  Fe  Fe23  1  0.66868464  0.33434070  0.33467535  1
  Cr  Cr24  1  0.66705635  0.66665371  0.99841041  1
  Cr  Cr25  1  0.83394913  0.83389530  0.16570040  1
  Cr  Cr26  1  0.66730466  0.66750060  0.33522821  1
  Cr  Cr27  1  0.16660260  0.16465817  0.50076091  1
  Cr  Cr28  1  0.99955215  0.99912716  0.66534354  1
  Cr  Cr29  1  0.16791963  0.16622703  0.83200953  1
  Cr  Cr30  1  0.16693351  0.50038011  0.50022224  1
  Cr  Cr31  1  0.99904701  0.33507826  0.66711219  1
  Cr  Cr32  1  0.16664451  0.50006023  0.83512288  1
  Fe  Fe33  1  0.16579900  0.83622080  0.49855517  1
  Cr  Cr34  1  0.99887637  0.66656880  0.66345285  1
  Cr  Cr35  1  0.16707375  0.83410185  0.83048590  1
  Cr  Cr36  1  0.49907400  0.16667579  0.49876858  1
  Ni  Ni37  1  0.33278823  0.99949552  0.66354000  1
  Cr  Cr38  1  0.49768347  0.16704169  0.83211650  1
  Cr  Cr39  1  0.50160119  0.49942671  0.49980683  1
  Cr  Cr40  1  0.33314584  0.33231467  0.66772914  1
  Cr  Cr41  1  0.50047297  0.49983854  0.83335943  1
  Cr  Cr42  1  0.49946436  0.83412280  0.50044939  1
  Cr  Cr43  1  0.33243540  0.66830916  0.66493403  1
  Cr  Cr44  1  0.49788021  0.83281543  0.83270736  1
  Cr  Cr45  1  0.83392840  0.16560810  0.49776942  1
  Cr  Cr46  1  0.66601604  0.99929651  0.66831974  1
  Cr  Cr47  1  0.83461643  0.16824469  0.83397916  1
  Fe  Fe48  1  0.83294548  0.50027782  0.49896518  1
  Cr  Cr49  1  0.66857713  0.33349527  0.66493077  1
  Ni  Ni50  1  0.83383930  0.50040391  0.83145329  1
  Ni  Ni51  1  0.83530749  0.83305543  0.49878790  1
  Cr  Cr52  1  0.66898367  0.66674853  0.66609081  1
  Cr  Cr53  1  0.83439425  0.83125163  0.83501984  1
" 