164,Ni80Fe10Cr10_3,-206.288348710363, 188.131349758322,Ni80Fe10Cr10,"# generated using pymatgen
 data_Cr44(FeNi)5
_symmetry_space_group_name_H-M   'P 1'
_cell_length_a   7.46704761
_cell_length_b   7.46704761
_cell_length_c   10.56000000
_cell_angle_alpha   90.00000000
_cell_angle_beta   90.00000000
_cell_angle_gamma   90.00000000
_symmetry_Int_Tables_number   1
_chemical_formula_structural   Cr44(FeNi)5
_chemical_formula_sum   'Cr44 Fe5 Ni5'
_cell_volume   588.79180800
_cell_formula_units_Z   1
loop_
 _symmetry_equiv_pos_site_id
 _symmetry_equiv_pos_as_xyz
  1  'x, y, z'
loop_
 _atom_site_type_symbol
 _atom_site_label
 _atom_site_symmetry_multiplicity
 _atom_site_fract_x
 _atom_site_fract_y
 _atom_site_fract_z
 _atom_site_occupancy
  Ni  Ni0  1  0.00219185  0.99894786  0.00181628  1
  Cr  Cr1  1  0.16814400  0.16573031  0.16567526  1
  Cr  Cr2  1  0.00210988  0.00101579  0.33241045  1
  Cr  Cr3  1  0.00123683  0.33213534  0.99918013  1
  Cr  Cr4  1  0.16756202  0.49752025  0.16713124  1
  Cr  Cr5  1  0.00299996  0.33227264  0.33691396  1
  Cr  Cr6  1  0.00212839  0.66911873  0.00180047  1
  Fe  Fe7  1  0.16785979  0.83507771  0.16715120  1
  Cr  Cr8  1  0.00331435  0.66675641  0.33369574  1
  Cr  Cr9  1  0.33393848  0.99969839  0.00152212  1
  Ni  Ni10  1  0.49522768  0.16667223  0.16834345  1
  Fe  Fe11  1  0.33276117  0.00358512  0.33336098  1
  Ni  Ni12  1  0.33361179  0.33135512  0.00231353  1
  Cr  Cr13  1  0.49844941  0.49704598  0.16582031  1
  Fe  Fe14  1  0.33301672  0.32959536  0.33387074  1
  Cr  Cr15  1  0.33238239  0.66588611  0.00067033  1
  Cr  Cr16  1  0.49885675  0.83500743  0.16848326  1
  Cr  Cr17  1  0.33220515  0.66673877  0.33226158  1
  Cr  Cr18  1  0.66720281  0.00099114  0.00114867  1
  Cr  Cr19  1  0.83396381  0.16649808  0.16511458  1
  Cr  Cr20  1  0.66349377  0.00271698  0.33341168  1
  Cr  Cr21  1  0.66355305  0.33076893  0.00119396  1
  Cr  Cr22  1  0.83339867  0.49985411  0.16733049  1
  Cr  Cr23  1  0.66381582  0.32987122  0.33229696  1
  Cr  Cr24  1  0.66565189  0.66786070  0.00015605  1
  Cr  Cr25  1  0.83550425  0.83421844  0.16731302  1
  Cr  Cr26  1  0.66597127  0.66737096  0.33281812  1
  Ni  Ni27  1  0.17142614  0.16741442  0.49938385  1
  Cr  Cr28  1  0.00133815  0.00179745  0.66624372  1
  Cr  Cr29  1  0.16759986  0.16618683  0.83482139  1
  Fe  Fe30  1  0.17005471  0.49802562  0.49821419  1
  Cr  Cr31  1  0.00262346  0.33282731  0.66367303  1
  Cr  Cr32  1  0.16774284  0.49791977  0.83427041  1
  Cr  Cr33  1  0.16808191  0.83672595  0.49932479  1
  Cr  Cr34  1  0.00311082  0.66530248  0.66447221  1
  Cr  Cr35  1  0.16669860  0.83626050  0.83416301  1
  Ni  Ni36  1  0.49288623  0.16644139  0.49780159  1
  Fe  Fe37  1  0.33201710  0.00316279  0.66471355  1
  Cr  Cr38  1  0.49670719  0.16695199  0.83369948  1
  Cr  Cr39  1  0.50002698  0.49874523  0.49801892  1
  Cr  Cr40  1  0.33318397  0.33305436  0.66465465  1
  Cr  Cr41  1  0.49879881  0.49906921  0.83644392  1
  Cr  Cr42  1  0.49836801  0.83542294  0.50098198  1
  Cr  Cr43  1  0.33208483  0.66668920  0.66714337  1
  Cr  Cr44  1  0.49874007  0.83422881  0.83009519  1
  Cr  Cr45  1  0.83339297  0.16634992  0.49972855  1
  Cr  Cr46  1  0.66366434  0.00289749  0.66524936  1
  Cr  Cr47  1  0.83583038  0.16573342  0.83512408  1
  Cr  Cr48  1  0.83368320  0.50044600  0.49898209  1
  Cr  Cr49  1  0.66547989  0.33102870  0.66647315  1
  Cr  Cr50  1  0.83325672  0.49968041  0.83341368  1
  Cr  Cr51  1  0.83266170  0.83280077  0.49982471  1
  Cr  Cr52  1  0.66574563  0.66623634  0.66703031  1
  Cr  Cr53  1  0.83424354  0.83429060  0.83285022  1
" 