172,Ni80Fe10Cr10_2,-206.382048692341, 189.021411362788,Ni80Fe10Cr10,"# generated using pymatgen
 data_Cr44(FeNi)5
_symmetry_space_group_name_H-M   'P 1'
_cell_length_a   7.46704761
_cell_length_b   7.46704761
_cell_length_c   10.56000000
_cell_angle_alpha   90.00000000
_cell_angle_beta   90.00000000
_cell_angle_gamma   90.00000000
_symmetry_Int_Tables_number   1
_chemical_formula_structural   Cr44(FeNi)5
_chemical_formula_sum   'Cr44 Fe5 Ni5'
_cell_volume   588.79180800
_cell_formula_units_Z   1
loop_
 _symmetry_equiv_pos_site_id
 _symmetry_equiv_pos_as_xyz
  1  'x, y, z'
loop_
 _atom_site_type_symbol
 _atom_site_label
 _atom_site_symmetry_multiplicity
 _atom_site_fract_x
 _atom_site_fract_y
 _atom_site_fract_z
 _atom_site_occupancy
  Cr  Cr0  1  0.99822676  0.99967852  0.99963971  1
  Cr  Cr1  1  0.16589157  0.16650992  0.16607613  1
  Ni  Ni2  1  0.00091477  0.99847355  0.33491407  1
  Cr  Cr3  1  0.99919762  0.33525908  0.99962747  1
  Cr  Cr4  1  0.16691734  0.49998567  0.16391413  1
  Cr  Cr5  1  0.00129229  0.33305126  0.33542883  1
  Fe  Fe6  1  0.99687273  0.66815824  0.99867794  1
  Cr  Cr7  1  0.16411591  0.83337226  0.16721762  1
  Cr  Cr8  1  0.00134343  0.66692447  0.33329965  1
  Cr  Cr9  1  0.33585963  0.00013815  0.00169698  1
  Fe  Fe10  1  0.50021664  0.16612298  0.16509792  1
  Cr  Cr11  1  0.33069446  0.99931669  0.33402369  1
  Fe  Fe12  1  0.33587761  0.33169851  0.00130237  1
  Cr  Cr13  1  0.49985674  0.50067424  0.16795375  1
  Cr  Cr14  1  0.33291170  0.33312658  0.33220319  1
  Cr  Cr15  1  0.33228208  0.66702066  0.00103120  1
  Cr  Cr16  1  0.50149050  0.83254933  0.16828760  1
  Cr  Cr17  1  0.33257721  0.66701952  0.33663106  1
  Ni  Ni18  1  0.66691694  0.00005301  0.00008934  1
  Cr  Cr19  1  0.83415744  0.16480579  0.17001366  1
  Cr  Cr20  1  0.66537934  0.00029444  0.33162161  1
  Cr  Cr21  1  0.66757117  0.33157233  0.00125419  1
  Cr  Cr22  1  0.83327105  0.50233882  0.16794363  1
  Cr  Cr23  1  0.66619293  0.33441328  0.33238101  1
  Cr  Cr24  1  0.66760030  0.66756632  0.99855491  1
  Cr  Cr25  1  0.83267732  0.83420343  0.16737871  1
  Ni  Ni26  1  0.66679284  0.66688478  0.33328707  1
  Cr  Cr27  1  0.16481383  0.16599523  0.50058044  1
  Cr  Cr28  1  0.00041084  0.99755747  0.66536228  1
  Cr  Cr29  1  0.16725050  0.16750091  0.83301491  1
  Ni  Ni30  1  0.16640970  0.50180474  0.49992764  1
  Cr  Cr31  1  0.99943016  0.33577067  0.66497348  1
  Cr  Cr32  1  0.16725975  0.49979537  0.83629289  1
  Ni  Ni33  1  0.16417220  0.83208443  0.49845979  1
  Cr  Cr34  1  0.00059480  0.66626160  0.66828461  1
  Cr  Cr35  1  0.16609521  0.83320536  0.83436923  1
  Cr  Cr36  1  0.50094798  0.16701949  0.50105075  1
  Cr  Cr37  1  0.33199451  0.99780875  0.66427191  1
  Cr  Cr38  1  0.50006895  0.16636523  0.83423754  1
  Cr  Cr39  1  0.50042928  0.50103897  0.49933790  1
  Cr  Cr40  1  0.33233209  0.33443151  0.66580557  1
  Cr  Cr41  1  0.49942002  0.49983571  0.83246829  1
  Cr  Cr42  1  0.50126861  0.83215064  0.49946665  1
  Cr  Cr43  1  0.33128901  0.66755885  0.66232888  1
  Cr  Cr44  1  0.50107406  0.83321701  0.83220662  1
  Cr  Cr45  1  0.83377310  0.16510597  0.49826339  1
  Cr  Cr46  1  0.66746870  0.99914547  0.66829365  1
  Cr  Cr47  1  0.83391806  0.16547204  0.83167744  1
  Cr  Cr48  1  0.83293538  0.50122106  0.49789632  1
  Cr  Cr49  1  0.66889142  0.33444767  0.66659872  1
  Fe  Fe50  1  0.83425150  0.50138334  0.83466424  1
  Cr  Cr51  1  0.83356725  0.83371459  0.49700948  1
  Cr  Cr52  1  0.66926176  0.66636344  0.66811166  1
  Fe  Fe53  1  0.83357306  0.83253266  0.83549825  1
" 