207,NiCr30_3,-67.6824438893135, 136.723993462888,NiCr30,"# generated using pymatgen
 data_CrNi3
_symmetry_space_group_name_H-M   'P 1'
_cell_length_a   4.97803174
_cell_length_b   4.97803174
_cell_length_c   7.04000000
_cell_angle_alpha   90.00000000
_cell_angle_beta   90.00000000
_cell_angle_gamma   90.00000000
_symmetry_Int_Tables_number   1
_chemical_formula_structural   CrNi3
_chemical_formula_sum   'Cr4 Ni12'
_cell_volume   174.45683200
_cell_formula_units_Z   4
loop_
 _symmetry_equiv_pos_site_id
 _symmetry_equiv_pos_as_xyz
  1  'x, y, z'
loop_
 _atom_site_type_symbol
 _atom_site_label
 _atom_site_symmetry_multiplicity
 _atom_site_fract_x
 _atom_site_fract_y
 _atom_site_fract_z
 _atom_site_occupancy
  Ni  Ni0  1  0.99848075  0.99841896  0.99849274  1
  Cr  Cr1  1  0.24884341  0.25140804  0.24858883  1
  Ni  Ni2  1  0.99850916  0.99861203  0.50137323  1
  Ni  Ni3  1  0.24850604  0.25128846  0.75157165  1
  Ni  Ni4  1  0.99861106  0.50137395  0.99881249  1
  Ni  Ni5  1  0.24857656  0.74859068  0.24857286  1
  Ni  Ni6  1  0.99844066  0.50142229  0.50136949  1
  Cr  Cr7  1  0.24814124  0.74819179  0.75171402  1
  Ni  Ni8  1  0.50143524  0.99849954  0.99855339  1
  Cr  Cr9  1  0.75165364  0.25167512  0.24804789  1
  Cr  Cr10  1  0.50152153  0.99859061  0.50160698  1
  Ni  Ni11  1  0.75153387  0.25162887  0.75156845  1
  Ni  Ni12  1  0.50156997  0.50154439  0.99846696  1
  Ni  Ni13  1  0.75145232  0.74875381  0.24848401  1
  Ni  Ni14  1  0.50148901  0.50143021  0.50139805  1
  Ni  Ni15  1  0.75123553  0.74857124  0.75137897  1
" 