227,NiCr80_1,-61.6947602163436, 157.099708932767,NiCr80,"# generated using pymatgen
 data_Cr3Ni
_symmetry_space_group_name_H-M   'P 1'
_cell_length_a   4.97803174
_cell_length_b   4.97803174
_cell_length_c   7.04000000
_cell_angle_alpha   90.00000000
_cell_angle_beta   90.00000000
_cell_angle_gamma   90.00000000
_symmetry_Int_Tables_number   1
_chemical_formula_structural   Cr3Ni
_chemical_formula_sum   'Cr12 Ni4'
_cell_volume   174.45683200
_cell_formula_units_Z   4
loop_
 _symmetry_equiv_pos_site_id
 _symmetry_equiv_pos_as_xyz
  1  'x, y, z'
loop_
 _atom_site_type_symbol
 _atom_site_label
 _atom_site_symmetry_multiplicity
 _atom_site_fract_x
 _atom_site_fract_y
 _atom_site_fract_z
 _atom_site_occupancy
  Cr  Cr0  1  0.00165325  0.00158347  0.99860640  1
  Ni  Ni1  1  0.24817129  0.25182871  0.24862225  1
  Cr  Cr2  1  0.00151833  0.00147204  0.50167066  1
  Cr  Cr3  1  0.24856957  0.25143043  0.75108833  1
  Ni  Ni4  1  0.00164073  0.49835927  0.99846940  1
  Cr  Cr5  1  0.24877459  0.74882643  0.24900693  1
  Cr  Cr6  1  0.00127475  0.49872525  0.50112694  1
  Ni  Ni7  1  0.24816175  0.74824795  0.75158623  1
  Cr  Cr8  1  0.49870920  0.00129080  0.99847480  1
  Cr  Cr9  1  0.75117357  0.25122541  0.24900693  1
  Cr  Cr10  1  0.49889346  0.00110654  0.50125380  1
  Ni  Ni11  1  0.75175205  0.25183825  0.75158623  1
  Cr  Cr12  1  0.49841653  0.49834675  0.99860640  1
  Cr  Cr13  1  0.75148154  0.74851846  0.24796194  1
  Cr  Cr14  1  0.49852796  0.49848167  0.50167066  1
  Cr  Cr15  1  0.75128144  0.74871856  0.75126210  1
" 