109,NiCr30_13,-67.9311266656429, 145.772045421778,NiCr30,"# generated using pymatgen
 data_CrNi3
_symmetry_space_group_name_H-M   'P 1'
_cell_length_a   4.97803174
_cell_length_b   4.97803174
_cell_length_c   7.04000000
_cell_angle_alpha   90.00000000
_cell_angle_beta   90.00000000
_cell_angle_gamma   90.00000000
_symmetry_Int_Tables_number   1
_chemical_formula_structural   CrNi3
_chemical_formula_sum   'Cr4 Ni12'
_cell_volume   174.45683200
_cell_formula_units_Z   4
loop_
 _symmetry_equiv_pos_site_id
 _symmetry_equiv_pos_as_xyz
  1  'x, y, z'
loop_
 _atom_site_type_symbol
 _atom_site_label
 _atom_site_symmetry_multiplicity
 _atom_site_fract_x
 _atom_site_fract_y
 _atom_site_fract_z
 _atom_site_occupancy
  Ni  Ni0  1  0.00160394  0.00149878  0.99892082  1
  Ni  Ni1  1  0.24858337  0.24548652  0.24874992  1
  Ni  Ni2  1  0.00127601  0.00128206  0.50095995  1
  Ni  Ni3  1  0.24855298  0.24567641  0.75106751  1
  Ni  Ni4  1  0.00151577  0.49846010  0.99842682  1
  Ni  Ni5  1  0.24868573  0.75425128  0.24867909  1
  Cr  Cr6  1  0.00133383  0.49854585  0.50135216  1
  Ni  Ni7  1  0.24830982  0.75505043  0.75149841  1
  Ni  Ni8  1  0.49852366  0.00141719  0.99869503  1
  Ni  Ni9  1  0.75131854  0.24585663  0.24867994  1
  Ni  Ni10  1  0.49846656  0.00147172  0.50140507  1
  Ni  Ni11  1  0.75168079  0.24509318  0.75149806  1
  Cr  Cr12  1  0.49839055  0.49835853  0.99815834  1
  Cr  Cr13  1  0.75146887  0.75435521  0.24835853  1
  Cr  Cr14  1  0.49872304  0.49862224  0.50207560  1
  Ni  Ni15  1  0.75156653  0.75457387  0.75147475  1
" 