283,NiCr30_2,-67.8767401021636, 137.724551596334,NiCr30,"# generated using pymatgen
 data_CrNi3
_symmetry_space_group_name_H-M   'P 1'
_cell_length_a   4.97803174
_cell_length_b   4.97803174
_cell_length_c   7.04000000
_cell_angle_alpha   90.00000000
_cell_angle_beta   90.00000000
_cell_angle_gamma   90.00000000
_symmetry_Int_Tables_number   1
_chemical_formula_structural   CrNi3
_chemical_formula_sum   'Cr4 Ni12'
_cell_volume   174.45683200
_cell_formula_units_Z   4
loop_
 _symmetry_equiv_pos_site_id
 _symmetry_equiv_pos_as_xyz
  1  'x, y, z'
loop_
 _atom_site_type_symbol
 _atom_site_label
 _atom_site_symmetry_multiplicity
 _atom_site_fract_x
 _atom_site_fract_y
 _atom_site_fract_z
 _atom_site_occupancy
  Cr  Cr0  1  0.99827250  0.99831824  0.00157495  1
  Ni  Ni1  1  0.25152130  0.24847870  0.25435501  1
  Ni  Ni2  1  0.99851441  0.99857067  0.49861516  1
  Cr  Cr3  1  0.25138440  0.24861560  0.74521216  1
  Cr  Cr4  1  0.99899883  0.50100117  0.00160660  1
  Ni  Ni5  1  0.25162527  0.75158822  0.25455227  1
  Ni  Ni6  1  0.99832043  0.50167957  0.49822735  1
  Ni  Ni7  1  0.25142209  0.75148160  0.74589815  1
  Ni  Ni8  1  0.50115024  0.99884976  0.00129897  1
  Ni  Ni9  1  0.74841178  0.24837473  0.25455227  1
  Ni  Ni10  1  0.50161818  0.99838182  0.49854743  1
  Ni  Ni11  1  0.74851840  0.24857791  0.74589815  1
  Cr  Cr12  1  0.50168176  0.50172750  0.00157495  1
  Ni  Ni13  1  0.74860704  0.75139296  0.25350568  1
  Ni  Ni14  1  0.50142933  0.50148559  0.49861516  1
  Ni  Ni15  1  0.74852404  0.75147596  0.74596578  1
" 