277,NiCr50_4,-64.5671492658878, 119.174568896367,NiCr50,"# generated using pymatgen
 data_CrNi
_symmetry_space_group_name_H-M   'P 1'
_cell_length_a   4.97803174
_cell_length_b   4.97803174
_cell_length_c   7.04000000
_cell_angle_alpha   90.00000000
_cell_angle_beta   90.00000000
_cell_angle_gamma   90.00000000
_symmetry_Int_Tables_number   1
_chemical_formula_structural   CrNi
_chemical_formula_sum   'Cr8 Ni8'
_cell_volume   174.45683200
_cell_formula_units_Z   8
loop_
 _symmetry_equiv_pos_site_id
 _symmetry_equiv_pos_as_xyz
  1  'x, y, z'
loop_
 _atom_site_type_symbol
 _atom_site_label
 _atom_site_symmetry_multiplicity
 _atom_site_fract_x
 _atom_site_fract_y
 _atom_site_fract_z
 _atom_site_occupancy
  Cr  Cr0  1  0.99934350  0.99897279  0.00147639  1
  Cr  Cr1  1  0.25150485  0.25138492  0.25585736  1
  Ni  Ni2  1  0.99771571  0.99808728  0.49819457  1
  Cr  Cr3  1  0.25138904  0.25145706  0.74501130  1
  Cr  Cr4  1  0.99902855  0.50168479  0.00144193  1
  Ni  Ni5  1  0.25186572  0.74816702  0.25567576  1
  Ni  Ni6  1  0.99806958  0.50142622  0.49863358  1
  Cr  Cr7  1  0.25107099  0.74874467  0.74498318  1
  Cr  Cr8  1  0.50117503  0.99844791  0.00148766  1
  Cr  Cr9  1  0.74862248  0.25149451  0.25374207  1
  Ni  Ni10  1  0.50185224  0.99847661  0.49858178  1
  Ni  Ni11  1  0.74828205  0.25155446  0.74523039  1
  Ni  Ni12  1  0.50112942  0.50154698  0.00145078  1
  Ni  Ni13  1  0.74862835  0.74845465  0.25396777  1
  Ni  Ni14  1  0.50200601  0.50167618  0.49855028  1
  Cr  Cr15  1  0.74831647  0.74842397  0.74571520  1
" 