436,NiCr30_11,-67.964466679492, 148.43087151739,NiCr30,"# generated using pymatgen
 data_CrNi3
_symmetry_space_group_name_H-M   'P 1'
_cell_length_a   4.97803174
_cell_length_b   4.97803174
_cell_length_c   7.04000000
_cell_angle_alpha   90.00000000
_cell_angle_beta   90.00000000
_cell_angle_gamma   90.00000000
_symmetry_Int_Tables_number   1
_chemical_formula_structural   CrNi3
_chemical_formula_sum   'Cr4 Ni12'
_cell_volume   174.45683200
_cell_formula_units_Z   4
loop_
 _symmetry_equiv_pos_site_id
 _symmetry_equiv_pos_as_xyz
  1  'x, y, z'
loop_
 _atom_site_type_symbol
 _atom_site_label
 _atom_site_symmetry_multiplicity
 _atom_site_fract_x
 _atom_site_fract_y
 _atom_site_fract_z
 _atom_site_occupancy
  Ni  Ni0  1  0.00290306  0.00000000  0.00282899  1
  Ni  Ni1  1  0.25000000  0.25302350  0.25000000  1
  Cr  Cr2  1  0.00297748  0.00000000  0.49718342  1
  Ni  Ni3  1  0.25000000  0.25298630  0.75000000  1
  Ni  Ni4  1  0.00324371  0.50000000  0.00292295  1
  Ni  Ni5  1  0.25000000  0.74697650  0.25000000  1
  Ni  Ni6  1  0.00268456  0.50000000  0.49761959  1
  Ni  Ni7  1  0.25000000  0.74701370  0.75000000  1
  Cr  Cr8  1  0.49702252  0.00000000  0.00281658  1
  Ni  Ni9  1  0.75000000  0.25308192  0.25000000  1
  Ni  Ni10  1  0.49709694  0.00000000  0.49717101  1
  Cr  Cr11  1  0.75000000  0.25272554  0.75000000  1
  Ni  Ni12  1  0.49731544  0.50000000  0.00238041  1
  Ni  Ni13  1  0.75000000  0.74691808  0.25000000  1
  Ni  Ni14  1  0.49675629  0.50000000  0.49707705  1
  Cr  Cr15  1  0.75000000  0.74727446  0.75000000  1
" 