48,NiCr60_11,-63.4167645002996, 116.905201570567,NiCr60,"# generated using pymatgen
 data_Cr9Ni7
_symmetry_space_group_name_H-M   'P 1'
_cell_length_a   4.97803174
_cell_length_b   4.97803174
_cell_length_c   7.04000000
_cell_angle_alpha   90.00000000
_cell_angle_beta   90.00000000
_cell_angle_gamma   90.00000000
_symmetry_Int_Tables_number   1
_chemical_formula_structural   Cr9Ni7
_chemical_formula_sum   'Cr9 Ni7'
_cell_volume   174.45683200
_cell_formula_units_Z   1
loop_
 _symmetry_equiv_pos_site_id
 _symmetry_equiv_pos_as_xyz
  1  'x, y, z'
loop_
 _atom_site_type_symbol
 _atom_site_label
 _atom_site_symmetry_multiplicity
 _atom_site_fract_x
 _atom_site_fract_y
 _atom_site_fract_z
 _atom_site_occupancy
  Cr  Cr0  1  0.00000000  0.00000000  0.00000000  1
  Cr  Cr1  1  0.25140618  0.24863741  0.24849592  1
  Cr  Cr2  1  0.00000000  0.00000000  0.50000000  1
  Ni  Ni3  1  0.25164520  0.24826792  0.75162207  1
  Ni  Ni4  1  0.00000000  0.50000000  0.00000000  1
  Ni  Ni5  1  0.25164520  0.75173208  0.24837793  1
  Cr  Cr6  1  0.00000000  0.50000000  0.50000000  1
  Cr  Cr7  1  0.25140618  0.75136259  0.75150408  1
  Ni  Ni8  1  0.50000000  0.00000000  0.00000000  1
  Cr  Cr9  1  0.74859382  0.24863741  0.24849592  1
  Ni  Ni10  1  0.50000000  0.00000000  0.50000000  1
  Ni  Ni11  1  0.74835480  0.24826792  0.75162207  1
  Cr  Cr12  1  0.50000000  0.50000000  0.00000000  1
  Ni  Ni13  1  0.74835480  0.75173208  0.24837793  1
  Cr  Cr14  1  0.50000000  0.50000000  0.50000000  1
  Cr  Cr15  1  0.74859382  0.75136259  0.75150408  1
" 