78,NiCr60_0,-63.7366694078075, 127.276804058211,NiCr60,"# generated using pymatgen
 data_Cr9Ni7
_symmetry_space_group_name_H-M   'P 1'
_cell_length_a   4.97803174
_cell_length_b   4.97803174
_cell_length_c   7.04000000
_cell_angle_alpha   90.00000000
_cell_angle_beta   90.00000000
_cell_angle_gamma   90.00000000
_symmetry_Int_Tables_number   1
_chemical_formula_structural   Cr9Ni7
_chemical_formula_sum   'Cr9 Ni7'
_cell_volume   174.45683200
_cell_formula_units_Z   1
loop_
 _symmetry_equiv_pos_site_id
 _symmetry_equiv_pos_as_xyz
  1  'x, y, z'
loop_
 _atom_site_type_symbol
 _atom_site_label
 _atom_site_symmetry_multiplicity
 _atom_site_fract_x
 _atom_site_fract_y
 _atom_site_fract_z
 _atom_site_occupancy
  Cr  Cr0  1  0.00132715  0.99884197  0.00119276  1
  Ni  Ni1  1  0.25005203  0.24994799  0.25368603  1
  Ni  Ni2  1  0.00161293  0.99841797  0.49852284  1
  Cr  Cr3  1  0.24985868  0.25013001  0.74685576  1
  Cr  Cr4  1  0.00144044  0.50120481  0.00188212  1
  Ni  Ni5  1  0.25004921  0.75003589  0.25273400  1
  Ni  Ni6  1  0.00180162  0.50192333  0.49815166  1
  Cr  Cr7  1  0.24976323  0.74982034  0.74714303  1
  Ni  Ni8  1  0.49826389  0.99847896  0.00148521  1
  Cr  Cr9  1  0.74998533  0.24998695  0.25370980  1
  Cr  Cr10  1  0.49842788  0.99829650  0.49881053  1
  Cr  Cr11  1  0.75015201  0.25018330  0.74692656  1
  Cr  Cr12  1  0.49862091  0.50104886  0.00120362  1
  Cr  Cr13  1  0.74995867  0.75004665  0.25249174  1
  Ni  Ni14  1  0.49858429  0.50175852  0.49851645  1
  Ni  Ni15  1  0.75010173  0.74987795  0.74668788  1
" 