301,NiCr40_4,-66.4820435567156, 140.22152819911,NiCr40,"# generated using pymatgen
 data_Cr3Ni5
_symmetry_space_group_name_H-M   'P 1'
_cell_length_a   4.97803174
_cell_length_b   4.97803174
_cell_length_c   7.04000000
_cell_angle_alpha   90.00000000
_cell_angle_beta   90.00000000
_cell_angle_gamma   90.00000000
_symmetry_Int_Tables_number   1
_chemical_formula_structural   Cr3Ni5
_chemical_formula_sum   'Cr6 Ni10'
_cell_volume   174.45683200
_cell_formula_units_Z   2
loop_
 _symmetry_equiv_pos_site_id
 _symmetry_equiv_pos_as_xyz
  1  'x, y, z'
loop_
 _atom_site_type_symbol
 _atom_site_label
 _atom_site_symmetry_multiplicity
 _atom_site_fract_x
 _atom_site_fract_y
 _atom_site_fract_z
 _atom_site_occupancy
  Cr  Cr0  1  0.00000000  0.99537436  0.00000000  1
  Cr  Cr1  1  0.25000000  0.25274292  0.25358902  1
  Ni  Ni2  1  0.00000000  0.99269863  0.50000000  1
  Cr  Cr3  1  0.25000000  0.25274292  0.74641098  1
  Ni  Ni4  1  0.00000000  0.50609422  0.00000000  1
  Ni  Ni5  1  0.25000000  0.74700991  0.25221010  1
  Ni  Ni6  1  0.00000000  0.50632714  0.50000000  1
  Ni  Ni7  1  0.25000000  0.74700991  0.74778990  1
  Cr  Cr8  1  0.50000000  0.99537436  0.00000000  1
  Cr  Cr9  1  0.75000000  0.25274292  0.25358902  1
  Ni  Ni10  1  0.50000000  0.99269863  0.50000000  1
  Cr  Cr11  1  0.75000000  0.25274292  0.74641098  1
  Ni  Ni12  1  0.50000000  0.50609422  0.00000000  1
  Ni  Ni13  1  0.75000000  0.74700991  0.25221010  1
  Ni  Ni14  1  0.50000000  0.50632714  0.50000000  1
  Ni  Ni15  1  0.75000000  0.74700991  0.74778990  1
" 