74,NiCr60_3,-63.6674523686081, 122.568653896001,NiCr60,"# generated using pymatgen
 data_Cr9Ni7
_symmetry_space_group_name_H-M   'P 1'
_cell_length_a   4.97803174
_cell_length_b   4.97803174
_cell_length_c   7.04000000
_cell_angle_alpha   90.00000000
_cell_angle_beta   90.00000000
_cell_angle_gamma   90.00000000
_symmetry_Int_Tables_number   1
_chemical_formula_structural   Cr9Ni7
_chemical_formula_sum   'Cr9 Ni7'
_cell_volume   174.45683200
_cell_formula_units_Z   1
loop_
 _symmetry_equiv_pos_site_id
 _symmetry_equiv_pos_as_xyz
  1  'x, y, z'
loop_
 _atom_site_type_symbol
 _atom_site_label
 _atom_site_symmetry_multiplicity
 _atom_site_fract_x
 _atom_site_fract_y
 _atom_site_fract_z
 _atom_site_occupancy
  Cr  Cr0  1  0.00123286  0.99893695  0.00174680  1
  Cr  Cr1  1  0.25357597  0.25397932  0.24991396  1
  Cr  Cr2  1  0.00106305  0.99876714  0.49825320  1
  Cr  Cr3  1  0.25412020  0.25354620  0.75007056  1
  Ni  Ni4  1  0.00181260  0.50210237  0.00162193  1
  Ni  Ni5  1  0.25267965  0.74732035  0.25000000  1
  Cr  Cr6  1  0.00147670  0.50147924  0.49857469  1
  Ni  Ni7  1  0.25264622  0.74735378  0.75000000  1
  Cr  Cr8  1  0.49852076  0.99852330  0.00142531  1
  Ni  Ni9  1  0.74674926  0.25325074  0.25000000  1
  Ni  Ni10  1  0.49789763  0.99818740  0.49837807  1
  Cr  Cr11  1  0.74866978  0.25133022  0.75000000  1
  Ni  Ni12  1  0.49865892  0.50157808  0.00105578  1
  Cr  Cr13  1  0.74602068  0.74642403  0.25008604  1
  Ni  Ni14  1  0.49842192  0.50134108  0.49894422  1
  Cr  Cr15  1  0.74645380  0.74587980  0.74992944  1
" 