63,NiCr80_12,-61.6947602163437, 157.099708924995,NiCr80,"# generated using pymatgen
 data_Cr3Ni
_symmetry_space_group_name_H-M   'P 1'
_cell_length_a   4.97803174
_cell_length_b   4.97803174
_cell_length_c   7.04000000
_cell_angle_alpha   90.00000000
_cell_angle_beta   90.00000000
_cell_angle_gamma   90.00000000
_symmetry_Int_Tables_number   1
_chemical_formula_structural   Cr3Ni
_chemical_formula_sum   'Cr12 Ni4'
_cell_volume   174.45683200
_cell_formula_units_Z   4
loop_
 _symmetry_equiv_pos_site_id
 _symmetry_equiv_pos_as_xyz
  1  'x, y, z'
loop_
 _atom_site_type_symbol
 _atom_site_label
 _atom_site_symmetry_multiplicity
 _atom_site_fract_x
 _atom_site_fract_y
 _atom_site_fract_z
 _atom_site_occupancy
  Cr  Cr0  1  0.99841653  0.99834675  0.00139360  1
  Cr  Cr1  1  0.25128144  0.24871856  0.24873790  1
  Cr  Cr2  1  0.99852796  0.99848167  0.49832934  1
  Cr  Cr3  1  0.25148154  0.24851846  0.75203806  1
  Cr  Cr4  1  0.99870920  0.50129080  0.00152520  1
  Ni  Ni5  1  0.25175205  0.75183825  0.24841377  1
  Cr  Cr6  1  0.99889346  0.50110654  0.49874620  1
  Cr  Cr7  1  0.25117357  0.75122541  0.75099307  1
  Ni  Ni8  1  0.50164073  0.99835927  0.00153060  1
  Ni  Ni9  1  0.74816175  0.24824795  0.24841377  1
  Cr  Cr10  1  0.50127475  0.99872525  0.49887306  1
  Cr  Cr11  1  0.74877459  0.24882643  0.75099307  1
  Cr  Cr12  1  0.50165325  0.50158347  0.00139360  1
  Cr  Cr13  1  0.74856957  0.75143043  0.24891167  1
  Cr  Cr14  1  0.50151833  0.50147204  0.49832934  1
  Ni  Ni15  1  0.74817129  0.75182871  0.75137775  1
" 