429,NiCr40_3,-66.5054029250604, 147.663068137675,NiCr40,"# generated using pymatgen
 data_Cr3Ni5
_symmetry_space_group_name_H-M   'P 1'
_cell_length_a   4.97803174
_cell_length_b   4.97803174
_cell_length_c   7.04000000
_cell_angle_alpha   90.00000000
_cell_angle_beta   90.00000000
_cell_angle_gamma   90.00000000
_symmetry_Int_Tables_number   1
_chemical_formula_structural   Cr3Ni5
_chemical_formula_sum   'Cr6 Ni10'
_cell_volume   174.45683200
_cell_formula_units_Z   2
loop_
 _symmetry_equiv_pos_site_id
 _symmetry_equiv_pos_as_xyz
  1  'x, y, z'
loop_
 _atom_site_type_symbol
 _atom_site_label
 _atom_site_symmetry_multiplicity
 _atom_site_fract_x
 _atom_site_fract_y
 _atom_site_fract_z
 _atom_site_occupancy
  Ni  Ni0  1  0.99808111  0.99449098  0.00165477  1
  Cr  Cr1  1  0.24869537  0.24862532  0.24835649  1
  Ni  Ni2  1  0.99901996  0.99663841  0.49872841  1
  Cr  Cr3  1  0.24856002  0.24864200  0.75188974  1
  Ni  Ni4  1  0.99850877  0.50393870  0.00124004  1
  Ni  Ni5  1  0.24858150  0.75144937  0.24853820  1
  Cr  Cr6  1  0.99831955  0.50552580  0.49872444  1
  Ni  Ni7  1  0.24825695  0.75174158  0.75158985  1
  Ni  Ni8  1  0.50134442  0.99568974  0.00127220  1
  Ni  Ni9  1  0.75167452  0.24839948  0.24842239  1
  Cr  Cr10  1  0.50181898  0.99486478  0.49867675  1
  Cr  Cr11  1  0.75141831  0.24855706  0.75127117  1
  Cr  Cr12  1  0.50163979  0.50446750  0.00113518  1
  Ni  Ni13  1  0.75150358  0.75139684  0.24871241  1
  Ni  Ni14  1  0.50119578  0.50402773  0.49858651  1
  Ni  Ni15  1  0.75138140  0.75154470  0.75120143  1
" 