402,NiCr70_13,-62.5139385372392, 143.028371934165,NiCr70,"# generated using pymatgen
 data_Cr11Ni5
_symmetry_space_group_name_H-M   'P 1'
_cell_length_a   4.97803174
_cell_length_b   4.97803174
_cell_length_c   7.04000000
_cell_angle_alpha   90.00000000
_cell_angle_beta   90.00000000
_cell_angle_gamma   90.00000000
_symmetry_Int_Tables_number   1
_chemical_formula_structural   Cr11Ni5
_chemical_formula_sum   'Cr11 Ni5'
_cell_volume   174.45683200
_cell_formula_units_Z   1
loop_
 _symmetry_equiv_pos_site_id
 _symmetry_equiv_pos_as_xyz
  1  'x, y, z'
loop_
 _atom_site_type_symbol
 _atom_site_label
 _atom_site_symmetry_multiplicity
 _atom_site_fract_x
 _atom_site_fract_y
 _atom_site_fract_z
 _atom_site_occupancy
  Cr  Cr0  1  0.00000000  0.99680781  0.00282424  1
  Cr  Cr1  1  0.24588245  0.25122904  0.25146484  1
  Ni  Ni2  1  0.00000000  0.99684783  0.49711534  1
  Cr  Cr3  1  0.24592555  0.25136422  0.74856002  1
  Ni  Ni4  1  0.00000000  0.50312310  0.00290985  1
  Ni  Ni5  1  0.24519305  0.74834897  0.25159019  1
  Ni  Ni6  1  0.00000000  0.50320310  0.49702001  1
  Cr  Cr7  1  0.24568183  0.74841558  0.74850164  1
  Cr  Cr8  1  0.50000000  0.99758240  0.00290549  1
  Cr  Cr9  1  0.75411755  0.25122904  0.25146484  1
  Cr  Cr10  1  0.50000000  0.99764427  0.49746061  1
  Cr  Cr11  1  0.75407445  0.25136422  0.74856002  1
  Cr  Cr12  1  0.50000000  0.50305721  0.00289115  1
  Ni  Ni13  1  0.75480695  0.74834897  0.25159019  1
  Cr  Cr14  1  0.50000000  0.50301866  0.49663990  1
  Cr  Cr15  1  0.75431817  0.74841558  0.74850164  1
" 