411,NiCr20_4,-68.4362799678129, 141.914357803527,NiCr20,"# generated using pymatgen
 data_Cr3Ni13
_symmetry_space_group_name_H-M   'P 1'
_cell_length_a   4.97803174
_cell_length_b   4.97803174
_cell_length_c   7.04000000
_cell_angle_alpha   90.00000000
_cell_angle_beta   90.00000000
_cell_angle_gamma   90.00000000
_symmetry_Int_Tables_number   1
_chemical_formula_structural   Cr3Ni13
_chemical_formula_sum   'Cr3 Ni13'
_cell_volume   174.45683200
_cell_formula_units_Z   1
loop_
 _symmetry_equiv_pos_site_id
 _symmetry_equiv_pos_as_xyz
  1  'x, y, z'
loop_
 _atom_site_type_symbol
 _atom_site_label
 _atom_site_symmetry_multiplicity
 _atom_site_fract_x
 _atom_site_fract_y
 _atom_site_fract_z
 _atom_site_occupancy
  Ni  Ni0  1  0.99878523  0.00148984  0.00151098  1
  Ni  Ni1  1  0.25000000  0.25000000  0.25000000  1
  Ni  Ni2  1  0.99851016  0.00121477  0.49848902  1
  Ni  Ni3  1  0.25000000  0.25000000  0.75000000  1
  Ni  Ni4  1  0.99850918  0.49850918  0.00142216  1
  Ni  Ni5  1  0.25000000  0.75000000  0.25000000  1
  Cr  Cr6  1  0.99814618  0.49814618  0.49804275  1
  Cr  Cr7  1  0.25000000  0.75000000  0.75000000  1
  Cr  Cr8  1  0.50185382  0.00185382  0.00195725  1
  Ni  Ni9  1  0.75000000  0.25000000  0.25000000  1
  Ni  Ni10  1  0.50149082  0.00149082  0.49857784  1
  Ni  Ni11  1  0.75000000  0.25000000  0.75000000  1
  Ni  Ni12  1  0.50148984  0.49878523  0.00151098  1
  Ni  Ni13  1  0.75000000  0.75000000  0.25000000  1
  Ni  Ni14  1  0.50121477  0.49851016  0.49848902  1
  Ni  Ni15  1  0.75000000  0.75000000  0.75000000  1
" 