246,NiCr50_6,-64.8600764798753, 137.390038832096,NiCr50,"# generated using pymatgen
 data_CrNi
_symmetry_space_group_name_H-M   'P 1'
_cell_length_a   4.97803174
_cell_length_b   4.97803174
_cell_length_c   7.04000000
_cell_angle_alpha   90.00000000
_cell_angle_beta   90.00000000
_cell_angle_gamma   90.00000000
_symmetry_Int_Tables_number   1
_chemical_formula_structural   CrNi
_chemical_formula_sum   'Cr8 Ni8'
_cell_volume   174.45683200
_cell_formula_units_Z   8
loop_
 _symmetry_equiv_pos_site_id
 _symmetry_equiv_pos_as_xyz
  1  'x, y, z'
loop_
 _atom_site_type_symbol
 _atom_site_label
 _atom_site_symmetry_multiplicity
 _atom_site_fract_x
 _atom_site_fract_y
 _atom_site_fract_z
 _atom_site_occupancy
  Ni  Ni0  1  0.99681628  0.00045404  0.00004421  1
  Cr  Cr1  1  0.25235362  0.24802906  0.24792166  1
  Cr  Cr2  1  0.99696830  0.99946048  0.49987735  1
  Ni  Ni3  1  0.25303151  0.24651146  0.75323318  1
  Cr  Cr4  1  0.99711659  0.49934105  0.99967702  1
  Cr  Cr5  1  0.25280673  0.75329243  0.24518117  1
  Cr  Cr6  1  0.99800339  0.50056128  0.50035112  1
  Cr  Cr7  1  0.25349190  0.75316002  0.75369869  1
  Ni  Ni8  1  0.50343704  0.00058165  0.00043481  1
  Ni  Ni9  1  0.74680311  0.24745352  0.24787725  1
  Ni  Ni10  1  0.50239543  0.99929703  0.49967851  1
  Cr  Cr11  1  0.74628565  0.24584180  0.75245296  1
  Ni  Ni12  1  0.50342928  0.49951517  0.00000952  1
  Ni  Ni13  1  0.74681856  0.75343248  0.24641345  1
  Cr  Cr14  1  0.50306457  0.50057439  0.49993351  1
  Ni  Ni15  1  0.74717805  0.75249414  0.75321560  1
" 