251,NiCr40_2,-65.9086942822999, 116.071629640557,NiCr40,"# generated using pymatgen
 data_Cr3Ni5
_symmetry_space_group_name_H-M   'P 1'
_cell_length_a   4.97803174
_cell_length_b   4.97803174
_cell_length_c   7.04000000
_cell_angle_alpha   90.00000000
_cell_angle_beta   90.00000000
_cell_angle_gamma   90.00000000
_symmetry_Int_Tables_number   1
_chemical_formula_structural   Cr3Ni5
_chemical_formula_sum   'Cr6 Ni10'
_cell_volume   174.45683200
_cell_formula_units_Z   2
loop_
 _symmetry_equiv_pos_site_id
 _symmetry_equiv_pos_as_xyz
  1  'x, y, z'
loop_
 _atom_site_type_symbol
 _atom_site_label
 _atom_site_symmetry_multiplicity
 _atom_site_fract_x
 _atom_site_fract_y
 _atom_site_fract_z
 _atom_site_occupancy
  Ni  Ni0  1  0.99823882  0.99846579  0.00148923  1
  Cr  Cr1  1  0.25157939  0.25165150  0.24740916  1
  Cr  Cr2  1  0.99923756  0.99899005  0.49880879  1
  Cr  Cr3  1  0.25206151  0.25168980  0.75229996  1
  Cr  Cr4  1  0.99780296  0.50211631  0.00146060  1
  Ni  Ni5  1  0.25165434  0.74841288  0.24824766  1
  Ni  Ni6  1  0.99873662  0.50140455  0.49867593  1
  Ni  Ni7  1  0.25114593  0.74865151  0.75160585  1
  Ni  Ni8  1  0.50183623  0.99810001  0.00169002  1
  Ni  Ni9  1  0.74863087  0.25173888  0.24829296  1
  Cr  Cr10  1  0.50159936  0.99846615  0.49794819  1
  Ni  Ni11  1  0.74855418  0.25105638  0.75157663  1
  Ni  Ni12  1  0.50136928  0.50156331  0.00153506  1
  Ni  Ni13  1  0.74882873  0.74867164  0.24911392  1
  Ni  Ni14  1  0.50129005  0.50107142  0.49838260  1
  Cr  Cr15  1  0.74743417  0.74794982  0.75146344  1
" 