297,NiCr80_11,-61.4379766250156, 147.841373145522,NiCr80,"# generated using pymatgen
 data_Cr3Ni
_symmetry_space_group_name_H-M   'P 1'
_cell_length_a   4.97803174
_cell_length_b   4.97803174
_cell_length_c   7.04000000
_cell_angle_alpha   90.00000000
_cell_angle_beta   90.00000000
_cell_angle_gamma   90.00000000
_symmetry_Int_Tables_number   1
_chemical_formula_structural   Cr3Ni
_chemical_formula_sum   'Cr12 Ni4'
_cell_volume   174.45683200
_cell_formula_units_Z   4
loop_
 _symmetry_equiv_pos_site_id
 _symmetry_equiv_pos_as_xyz
  1  'x, y, z'
loop_
 _atom_site_type_symbol
 _atom_site_label
 _atom_site_symmetry_multiplicity
 _atom_site_fract_x
 _atom_site_fract_y
 _atom_site_fract_z
 _atom_site_occupancy
  Cr  Cr0  1  0.99870014  0.00128243  0.00122834  1
  Cr  Cr1  1  0.24842878  0.25161226  0.24856320  1
  Ni  Ni2  1  0.99799128  0.00188561  0.49823295  1
  Cr  Cr3  1  0.24853299  0.25164536  0.75169745  1
  Ni  Ni4  1  0.99851519  0.49819849  0.00144128  1
  Cr  Cr5  1  0.24871709  0.74872918  0.24851818  1
  Cr  Cr6  1  0.99841205  0.49864778  0.49862914  1
  Cr  Cr7  1  0.24886365  0.74877303  0.75122894  1
  Cr  Cr8  1  0.50144445  0.00121959  0.00168805  1
  Ni  Ni9  1  0.75164201  0.25164494  0.24834853  1
  Cr  Cr10  1  0.50122416  0.00142165  0.49854986  1
  Cr  Cr11  1  0.75129723  0.25141259  0.75125638  1
  Ni  Ni12  1  0.50179503  0.49804873  0.00183559  1
  Cr  Cr13  1  0.75161399  0.74841336  0.24854597  1
  Cr  Cr14  1  0.50130550  0.49866766  0.49852060  1
  Cr  Cr15  1  0.75151644  0.74839734  0.75171553  1
" 