292,NiCr60_2,-63.9734394732748, 138.871929792271,NiCr60,"# generated using pymatgen
 data_Cr9Ni7
_symmetry_space_group_name_H-M   'P 1'
_cell_length_a   4.97803174
_cell_length_b   4.97803174
_cell_length_c   7.04000000
_cell_angle_alpha   90.00000000
_cell_angle_beta   90.00000000
_cell_angle_gamma   90.00000000
_symmetry_Int_Tables_number   1
_chemical_formula_structural   Cr9Ni7
_chemical_formula_sum   'Cr9 Ni7'
_cell_volume   174.45683200
_cell_formula_units_Z   1
loop_
 _symmetry_equiv_pos_site_id
 _symmetry_equiv_pos_as_xyz
  1  'x, y, z'
loop_
 _atom_site_type_symbol
 _atom_site_label
 _atom_site_symmetry_multiplicity
 _atom_site_fract_x
 _atom_site_fract_y
 _atom_site_fract_z
 _atom_site_occupancy
  Ni  Ni0  1  0.00299743  0.00000000  0.00000000  1
  Cr  Cr1  1  0.24834118  0.24827853  0.25132967  1
  Ni  Ni2  1  0.00349640  0.00000000  0.50000000  1
  Ni  Ni3  1  0.24845733  0.24854421  0.74849362  1
  Cr  Cr4  1  0.00262362  0.50000000  0.00000000  1
  Ni  Ni5  1  0.24845733  0.75145579  0.25150638  1
  Ni  Ni6  1  0.00342415  0.50000000  0.50000000  1
  Cr  Cr7  1  0.24834118  0.75172147  0.74867033  1
  Cr  Cr8  1  0.49709671  0.00000000  0.00000000  1
  Cr  Cr9  1  0.75131762  0.24857970  0.25185745  1
  Ni  Ni10  1  0.49711712  0.00000000  0.50000000  1
  Cr  Cr11  1  0.75149716  0.24857930  0.74868949  1
  Ni  Ni12  1  0.49657453  0.50000000  0.00000000  1
  Cr  Cr13  1  0.75149716  0.75142070  0.25131051  1
  Cr  Cr14  1  0.49744347  0.50000000  0.50000000  1
  Cr  Cr15  1  0.75131762  0.75142030  0.74814255  1
" 