287,NiCr50_8,-64.5412938667357, 123.462662260215,NiCr50,"# generated using pymatgen
 data_CrNi
_symmetry_space_group_name_H-M   'P 1'
_cell_length_a   4.97803174
_cell_length_b   4.97803174
_cell_length_c   7.04000000
_cell_angle_alpha   90.00000000
_cell_angle_beta   90.00000000
_cell_angle_gamma   90.00000000
_symmetry_Int_Tables_number   1
_chemical_formula_structural   CrNi
_chemical_formula_sum   'Cr8 Ni8'
_cell_volume   174.45683200
_cell_formula_units_Z   8
loop_
 _symmetry_equiv_pos_site_id
 _symmetry_equiv_pos_as_xyz
  1  'x, y, z'
loop_
 _atom_site_type_symbol
 _atom_site_label
 _atom_site_symmetry_multiplicity
 _atom_site_fract_x
 _atom_site_fract_y
 _atom_site_fract_z
 _atom_site_occupancy
  Cr  Cr0  1  1.00000000  0.00440234  0.00000000  1
  Ni  Ni1  1  0.24646437  0.25327901  0.25000000  1
  Cr  Cr2  1  0.00000000  0.00440234  0.50000000  1
  Ni  Ni3  1  0.24723447  0.25331775  0.75000000  1
  Ni  Ni4  1  0.00000000  0.49789331  0.00000000  1
  Ni  Ni5  1  0.24601002  0.74673158  0.25000000  1
  Ni  Ni6  1  0.00000000  0.49789331  0.50000000  1
  Cr  Cr7  1  0.24780733  0.74743306  0.75000000  1
  Cr  Cr8  1  0.50000000  0.00140790  0.00000000  1
  Ni  Ni9  1  0.75276553  0.25331775  0.25000000  1
  Cr  Cr10  1  0.50000000  0.00140790  0.50000000  1
  Ni  Ni11  1  0.75353563  0.25327901  0.75000000  1
  Cr  Cr12  1  0.50000000  0.49553505  0.00000000  1
  Cr  Cr13  1  0.75219267  0.74743306  0.25000000  1
  Cr  Cr14  1  0.50000000  0.49553505  0.50000000  1
  Ni  Ni15  1  0.75398998  0.74673158  0.75000000  1
" 