177,NiCr20_8,-68.6612887065572, 147.902806056594,NiCr20,"# generated using pymatgen
 data_Cr3Ni13
_symmetry_space_group_name_H-M   'P 1'
_cell_length_a   4.97803174
_cell_length_b   4.97803174
_cell_length_c   7.04000000
_cell_angle_alpha   90.00000000
_cell_angle_beta   90.00000000
_cell_angle_gamma   90.00000000
_symmetry_Int_Tables_number   1
_chemical_formula_structural   Cr3Ni13
_chemical_formula_sum   'Cr3 Ni13'
_cell_volume   174.45683200
_cell_formula_units_Z   1
loop_
 _symmetry_equiv_pos_site_id
 _symmetry_equiv_pos_as_xyz
  1  'x, y, z'
loop_
 _atom_site_type_symbol
 _atom_site_label
 _atom_site_symmetry_multiplicity
 _atom_site_fract_x
 _atom_site_fract_y
 _atom_site_fract_z
 _atom_site_occupancy
  Ni  Ni0  1  0.00000000  0.00000000  0.00298365  1
  Ni  Ni1  1  0.24867775  0.25132225  0.24878051  1
  Ni  Ni2  1  0.00000000  0.00000000  0.49733739  1
  Cr  Cr3  1  0.24808018  0.25191982  0.75160908  1
  Ni  Ni4  1  0.00000000  0.50000000  0.00237706  1
  Ni  Ni5  1  0.24835552  0.74835552  0.24835156  1
  Ni  Ni6  1  0.00000000  0.50000000  0.49730678  1
  Ni  Ni7  1  0.24890963  0.74890963  0.75131119  1
  Ni  Ni8  1  0.50000000  0.00000000  0.00277132  1
  Ni  Ni9  1  0.75164448  0.25164448  0.24835156  1
  Cr  Cr10  1  0.50000000  0.00000000  0.49679807  1
  Ni  Ni11  1  0.75109037  0.25109037  0.75131119  1
  Ni  Ni12  1  0.50000000  0.50000000  0.00298365  1
  Ni  Ni13  1  0.75132225  0.74867775  0.24878051  1
  Ni  Ni14  1  0.50000000  0.50000000  0.49733739  1
  Cr  Cr15  1  0.75191982  0.74808018  0.75160908  1
" 