158,NiCr20_5,-68.436279967813, 141.914356870911,NiCr20,"# generated using pymatgen
 data_Cr3Ni13
_symmetry_space_group_name_H-M   'P 1'
_cell_length_a   4.97803174
_cell_length_b   4.97803174
_cell_length_c   7.04000000
_cell_angle_alpha   90.00000000
_cell_angle_beta   90.00000000
_cell_angle_gamma   90.00000000
_symmetry_Int_Tables_number   1
_chemical_formula_structural   Cr3Ni13
_chemical_formula_sum   'Cr3 Ni13'
_cell_volume   174.45683200
_cell_formula_units_Z   1
loop_
 _symmetry_equiv_pos_site_id
 _symmetry_equiv_pos_as_xyz
  1  'x, y, z'
loop_
 _atom_site_type_symbol
 _atom_site_label
 _atom_site_symmetry_multiplicity
 _atom_site_fract_x
 _atom_site_fract_y
 _atom_site_fract_z
 _atom_site_occupancy
  Ni  Ni0  1  0.00000000  0.00000000  0.00000000  1
  Ni  Ni1  1  0.24878523  0.25148984  0.24848902  1
  Ni  Ni2  1  0.00000000  0.00000000  0.50000000  1
  Ni  Ni3  1  0.24851016  0.25121477  0.75151098  1
  Ni  Ni4  1  0.00000000  0.50000000  0.00000000  1
  Ni  Ni5  1  0.24850918  0.74850918  0.24857784  1
  Ni  Ni6  1  0.00000000  0.50000000  0.50000000  1
  Cr  Cr7  1  0.24814618  0.74814618  0.75195725  1
  Ni  Ni8  1  0.50000000  0.00000000  0.00000000  1
  Cr  Cr9  1  0.75185382  0.25185382  0.24804275  1
  Cr  Cr10  1  0.50000000  0.00000000  0.50000000  1
  Ni  Ni11  1  0.75149082  0.25149082  0.75142216  1
  Ni  Ni12  1  0.50000000  0.50000000  0.00000000  1
  Ni  Ni13  1  0.75148984  0.74878523  0.24848902  1
  Ni  Ni14  1  0.50000000  0.50000000  0.50000000  1
  Ni  Ni15  1  0.75121477  0.74851016  0.75151098  1
" 