197,NiCr60_10,-63.9358658020673, 128.057530178001,NiCr60,"# generated using pymatgen
 data_Cr9Ni7
_symmetry_space_group_name_H-M   'P 1'
_cell_length_a   4.97803174
_cell_length_b   4.97803174
_cell_length_c   7.04000000
_cell_angle_alpha   90.00000000
_cell_angle_beta   90.00000000
_cell_angle_gamma   90.00000000
_symmetry_Int_Tables_number   1
_chemical_formula_structural   Cr9Ni7
_chemical_formula_sum   'Cr9 Ni7'
_cell_volume   174.45683200
_cell_formula_units_Z   1
loop_
 _symmetry_equiv_pos_site_id
 _symmetry_equiv_pos_as_xyz
  1  'x, y, z'
loop_
 _atom_site_type_symbol
 _atom_site_label
 _atom_site_symmetry_multiplicity
 _atom_site_fract_x
 _atom_site_fract_y
 _atom_site_fract_z
 _atom_site_occupancy
  Cr  Cr0  1  0.00187168  0.99572523  0.99815741  1
  Cr  Cr1  1  0.24996349  0.25320611  0.25315008  1
  Cr  Cr2  1  0.00108565  0.99528188  0.50180829  1
  Cr  Cr3  1  0.25014466  0.25313083  0.74627088  1
  Ni  Ni4  1  0.00177746  0.50482344  0.99829599  1
  Ni  Ni5  1  0.24980948  0.74715592  0.25281376  1
  Ni  Ni6  1  0.00140235  0.50471562  0.50165551  1
  Ni  Ni7  1  0.25015478  0.74693788  0.74710581  1
  Cr  Cr8  1  0.49880558  0.99757508  0.99878999  1
  Cr  Cr9  1  0.75010402  0.25187184  0.25295002  1
  Ni  Ni10  1  0.49821675  0.99420967  0.50188294  1
  Cr  Cr11  1  0.74996436  0.25249881  0.74743324  1
  Cr  Cr12  1  0.49823866  0.50577281  0.99825653  1
  Cr  Cr13  1  0.74986513  0.74622149  0.25271612  1
  Ni  Ni14  1  0.49865412  0.50430245  0.50133553  1
  Ni  Ni15  1  0.74994184  0.74657093  0.74737793  1
" 