320,NiCr70_10,-62.1755779311241, 131.838911174999,NiCr70,"# generated using pymatgen
 data_Cr11Ni5
_symmetry_space_group_name_H-M   'P 1'
_cell_length_a   4.97803174
_cell_length_b   4.97803174
_cell_length_c   7.04000000
_cell_angle_alpha   90.00000000
_cell_angle_beta   90.00000000
_cell_angle_gamma   90.00000000
_symmetry_Int_Tables_number   1
_chemical_formula_structural   Cr11Ni5
_chemical_formula_sum   'Cr11 Ni5'
_cell_volume   174.45683200
_cell_formula_units_Z   1
loop_
 _symmetry_equiv_pos_site_id
 _symmetry_equiv_pos_as_xyz
  1  'x, y, z'
loop_
 _atom_site_type_symbol
 _atom_site_label
 _atom_site_symmetry_multiplicity
 _atom_site_fract_x
 _atom_site_fract_y
 _atom_site_fract_z
 _atom_site_occupancy
  Ni  Ni0  1  0.99840502  0.00147666  0.99863484  1
  Cr  Cr1  1  0.24997556  0.24676432  0.24654318  1
  Cr  Cr2  1  0.99851905  0.00174298  0.50161046  1
  Cr  Cr3  1  0.24982564  0.24675238  0.75293290  1
  Ni  Ni4  1  0.99809011  0.49820313  0.99813560  1
  Cr  Cr5  1  0.25002003  0.75240397  0.24748943  1
  Cr  Cr6  1  0.99884938  0.49892931  0.50124404  1
  Cr  Cr7  1  0.24993653  0.75251415  0.75304477  1
  Ni  Ni8  1  0.50161865  0.00172364  0.99846525  1
  Cr  Cr9  1  0.75002293  0.24723700  0.24749503  1
  Ni  Ni10  1  0.50174105  0.00187922  0.50169291  1
  Ni  Ni11  1  0.75000116  0.24685004  0.75323060  1
  Cr  Cr12  1  0.50126870  0.49856149  0.99833066  1
  Cr  Cr13  1  0.75003283  0.75310006  0.24654022  1
  Cr  Cr14  1  0.50158496  0.49866648  0.50167625  1
  Cr  Cr15  1  0.75010840  0.75319520  0.75293385  1
" 