95,NiCr30_8,-67.6824438893135, 136.723993462889,NiCr30,"# generated using pymatgen
 data_CrNi3
_symmetry_space_group_name_H-M   'P 1'
_cell_length_a   4.97803174
_cell_length_b   4.97803174
_cell_length_c   7.04000000
_cell_angle_alpha   90.00000000
_cell_angle_beta   90.00000000
_cell_angle_gamma   90.00000000
_symmetry_Int_Tables_number   1
_chemical_formula_structural   CrNi3
_chemical_formula_sum   'Cr4 Ni12'
_cell_volume   174.45683200
_cell_formula_units_Z   4
loop_
 _symmetry_equiv_pos_site_id
 _symmetry_equiv_pos_as_xyz
  1  'x, y, z'
loop_
 _atom_site_type_symbol
 _atom_site_label
 _atom_site_symmetry_multiplicity
 _atom_site_fract_x
 _atom_site_fract_y
 _atom_site_fract_z
 _atom_site_occupancy
  Ni  Ni0  1  0.99862605  0.99861106  0.00118751  1
  Ni  Ni1  1  0.24871154  0.24850604  0.24842835  1
  Ni  Ni2  1  0.99857771  0.99844066  0.49863051  1
  Cr  Cr3  1  0.24859196  0.24884341  0.75141117  1
  Ni  Ni4  1  0.99845561  0.50156997  0.00153304  1
  Ni  Ni5  1  0.24837113  0.75153387  0.24843155  1
  Ni  Ni6  1  0.99856979  0.50148901  0.49860195  1
  Cr  Cr7  1  0.24832488  0.75165364  0.75195211  1
  Ni  Ni8  1  0.50158104  0.99848075  0.00150726  1
  Cr  Cr9  1  0.75180821  0.24814124  0.24828598  1
  Ni  Ni10  1  0.50138797  0.99850916  0.49862677  1
  Ni  Ni11  1  0.75140932  0.24857656  0.75142714  1
  Ni  Ni12  1  0.50150046  0.50143524  0.00144661  1
  Ni  Ni13  1  0.75142876  0.75123553  0.24862103  1
  Cr  Cr14  1  0.50140939  0.50152153  0.49839302  1
  Ni  Ni15  1  0.75124619  0.75145232  0.75151599  1
" 