80,NiCr60_9,-63.9660332699065, 135.593868806667,NiCr60,"# generated using pymatgen
 data_Cr9Ni7
_symmetry_space_group_name_H-M   'P 1'
_cell_length_a   4.97803174
_cell_length_b   4.97803174
_cell_length_c   7.04000000
_cell_angle_alpha   90.00000000
_cell_angle_beta   90.00000000
_cell_angle_gamma   90.00000000
_symmetry_Int_Tables_number   1
_chemical_formula_structural   Cr9Ni7
_chemical_formula_sum   'Cr9 Ni7'
_cell_volume   174.45683200
_cell_formula_units_Z   1
loop_
 _symmetry_equiv_pos_site_id
 _symmetry_equiv_pos_as_xyz
  1  'x, y, z'
loop_
 _atom_site_type_symbol
 _atom_site_label
 _atom_site_symmetry_multiplicity
 _atom_site_fract_x
 _atom_site_fract_y
 _atom_site_fract_z
 _atom_site_occupancy
  Ni  Ni0  1  0.99506558  0.99800984  0.99834851  1
  Cr  Cr1  1  0.25176038  0.25025808  0.24976855  1
  Cr  Cr2  1  0.99665885  0.99898608  0.50096771  1
  Cr  Cr3  1  0.25250993  0.24982108  0.75022779  1
  Cr  Cr4  1  0.99516697  0.50135079  0.99833471  1
  Cr  Cr5  1  0.25321051  0.74980435  0.24998793  1
  Cr  Cr6  1  0.99589227  0.50163221  0.50226169  1
  Cr  Cr7  1  0.25314552  0.75022896  0.75001854  1
  Cr  Cr8  1  0.50500106  0.99824779  0.99869063  1
  Cr  Cr9  1  0.74617278  0.25017752  0.25016728  1
  Ni  Ni10  1  0.50499683  0.99864726  0.50120758  1
  Ni  Ni11  1  0.74663191  0.24981609  0.74986652  1
  Ni  Ni12  1  0.50452936  0.50146807  0.99835712  1
  Ni  Ni13  1  0.74729870  0.74965372  0.25026214  1
  Ni  Ni14  1  0.50496174  0.50171001  0.50185203  1
  Ni  Ni15  1  0.74699760  0.75018815  0.74968128  1
" 