423,NiCr80_13,-61.6853767856597, 153.070332082772,NiCr80,"# generated using pymatgen
 data_Cr3Ni
_symmetry_space_group_name_H-M   'P 1'
_cell_length_a   4.97803174
_cell_length_b   4.97803174
_cell_length_c   7.04000000
_cell_angle_alpha   90.00000000
_cell_angle_beta   90.00000000
_cell_angle_gamma   90.00000000
_symmetry_Int_Tables_number   1
_chemical_formula_structural   Cr3Ni
_chemical_formula_sum   'Cr12 Ni4'
_cell_volume   174.45683200
_cell_formula_units_Z   4
loop_
 _symmetry_equiv_pos_site_id
 _symmetry_equiv_pos_as_xyz
  1  'x, y, z'
loop_
 _atom_site_type_symbol
 _atom_site_label
 _atom_site_symmetry_multiplicity
 _atom_site_fract_x
 _atom_site_fract_y
 _atom_site_fract_z
 _atom_site_occupancy
  Cr  Cr0  1  0.99863935  0.00471859  0.00143638  1
  Ni  Ni1  1  0.25157359  0.24810922  0.24857425  1
  Cr  Cr2  1  0.99841266  0.00475474  0.49826414  1
  Cr  Cr3  1  0.25151433  0.24836191  0.75134357  1
  Cr  Cr4  1  0.99881574  0.49631933  0.00148840  1
  Cr  Cr5  1  0.25114558  0.75111656  0.24874126  1
  Cr  Cr6  1  0.99876392  0.49649503  0.49878396  1
  Cr  Cr7  1  0.25120372  0.75114908  0.75146320  1
  Ni  Ni8  1  0.50162558  0.00482763  0.00170349  1
  Ni  Ni9  1  0.74844543  0.24826499  0.24855151  1
  Cr  Cr10  1  0.50136118  0.00398796  0.49874556  1
  Ni  Ni11  1  0.74834772  0.24825958  0.75145275  1
  Cr  Cr12  1  0.50149356  0.49552048  0.00145699  1
  Cr  Cr13  1  0.74854031  0.75137184  0.24830943  1
  Cr  Cr14  1  0.50162065  0.49538480  0.49823893  1
  Cr  Cr15  1  0.74849667  0.75135828  0.75144620  1
" 