392,NiCr70_11,-62.2558155719793, 143.498541570572,NiCr70,"# generated using pymatgen
 data_Cr11Ni5
_symmetry_space_group_name_H-M   'P 1'
_cell_length_a   4.97803174
_cell_length_b   4.97803174
_cell_length_c   7.04000000
_cell_angle_alpha   90.00000000
_cell_angle_beta   90.00000000
_cell_angle_gamma   90.00000000
_symmetry_Int_Tables_number   1
_chemical_formula_structural   Cr11Ni5
_chemical_formula_sum   'Cr11 Ni5'
_cell_volume   174.45683200
_cell_formula_units_Z   1
loop_
 _symmetry_equiv_pos_site_id
 _symmetry_equiv_pos_as_xyz
  1  'x, y, z'
loop_
 _atom_site_type_symbol
 _atom_site_label
 _atom_site_symmetry_multiplicity
 _atom_site_fract_x
 _atom_site_fract_y
 _atom_site_fract_z
 _atom_site_occupancy
  Ni  Ni0  1  0.00166518  0.00166518  0.99821367  1
  Ni  Ni1  1  0.25000000  0.25000000  0.25000000  1
  Cr  Cr2  1  0.00121263  0.00121263  0.50131505  1
  Cr  Cr3  1  0.25000000  0.25000000  0.75000000  1
  Cr  Cr4  1  0.00159886  0.49850621  0.99835092  1
  Cr  Cr5  1  0.25000000  0.75000000  0.25000000  1
  Cr  Cr6  1  0.00149379  0.49840114  0.50164908  1
  Ni  Ni7  1  0.25000000  0.75000000  0.75000000  1
  Cr  Cr8  1  0.49850621  0.00159886  0.99835092  1
  Cr  Cr9  1  0.75000000  0.25000000  0.25000000  1
  Cr  Cr10  1  0.49840114  0.00149379  0.50164908  1
  Ni  Ni11  1  0.75000000  0.25000000  0.75000000  1
  Cr  Cr12  1  0.49878737  0.49878737  0.99868495  1
  Cr  Cr13  1  0.75000000  0.75000000  0.25000000  1
  Ni  Ni14  1  0.49833482  0.49833482  0.50178633  1
  Cr  Cr15  1  0.75000000  0.75000000  0.75000000  1
" 