143,NiCr80_3,-61.401460021716, 145.790856744471,NiCr80,"# generated using pymatgen
 data_Cr3Ni
_symmetry_space_group_name_H-M   'P 1'
_cell_length_a   4.97803174
_cell_length_b   4.97803174
_cell_length_c   7.04000000
_cell_angle_alpha   90.00000000
_cell_angle_beta   90.00000000
_cell_angle_gamma   90.00000000
_symmetry_Int_Tables_number   1
_chemical_formula_structural   Cr3Ni
_chemical_formula_sum   'Cr12 Ni4'
_cell_volume   174.45683200
_cell_formula_units_Z   4
loop_
 _symmetry_equiv_pos_site_id
 _symmetry_equiv_pos_as_xyz
  1  'x, y, z'
loop_
 _atom_site_type_symbol
 _atom_site_label
 _atom_site_symmetry_multiplicity
 _atom_site_fract_x
 _atom_site_fract_y
 _atom_site_fract_z
 _atom_site_occupancy
  Cr  Cr0  1  0.00000000  0.00000000  0.00000000  1
  Cr  Cr1  1  0.25285587  0.25285587  0.25000000  1
  Cr  Cr2  1  0.00000000  0.00000000  0.50000000  1
  Cr  Cr3  1  0.25285587  0.25285587  0.75000000  1
  Cr  Cr4  1  0.00000000  0.50000000  0.00000000  1
  Cr  Cr5  1  0.25285587  0.74714413  0.25000000  1
  Ni  Ni6  1  0.00000000  0.50000000  0.50000000  1
  Cr  Cr7  1  0.25285587  0.74714413  0.75000000  1
  Ni  Ni8  1  0.50000000  0.00000000  0.00000000  1
  Cr  Cr9  1  0.74714413  0.25285587  0.25000000  1
  Cr  Cr10  1  0.50000000  0.00000000  0.50000000  1
  Cr  Cr11  1  0.74714413  0.25285587  0.75000000  1
  Ni  Ni12  1  0.50000000  0.50000000  0.00000000  1
  Cr  Cr13  1  0.74714413  0.74714413  0.25000000  1
  Ni  Ni14  1  0.50000000  0.50000000  0.50000000  1
  Cr  Cr15  1  0.74714413  0.74714413  0.75000000  1
" 