285,NiCr60_7,-63.6674369396083, 123.124109169827,NiCr60,"# generated using pymatgen
 data_Cr9Ni7
_symmetry_space_group_name_H-M   'P 1'
_cell_length_a   4.97803174
_cell_length_b   4.97803174
_cell_length_c   7.04000000
_cell_angle_alpha   90.00000000
_cell_angle_beta   90.00000000
_cell_angle_gamma   90.00000000
_symmetry_Int_Tables_number   1
_chemical_formula_structural   Cr9Ni7
_chemical_formula_sum   'Cr9 Ni7'
_cell_volume   174.45683200
_cell_formula_units_Z   1
loop_
 _symmetry_equiv_pos_site_id
 _symmetry_equiv_pos_as_xyz
  1  'x, y, z'
loop_
 _atom_site_type_symbol
 _atom_site_label
 _atom_site_symmetry_multiplicity
 _atom_site_fract_x
 _atom_site_fract_y
 _atom_site_fract_z
 _atom_site_occupancy
  Ni  Ni0  1  0.99558197  0.99857999  0.99818206  1
  Cr  Cr1  1  0.25000000  0.25000000  0.25000000  1
  Cr  Cr2  1  0.99703074  0.99901103  0.50132719  1
  Cr  Cr3  1  0.25000000  0.25000000  0.75000000  1
  Cr  Cr4  1  0.99422543  0.50186001  0.99821179  1
  Cr  Cr5  1  0.25000000  0.75000000  0.25000000  1
  Cr  Cr6  1  0.99469491  0.50198009  0.50179386  1
  Ni  Ni7  1  0.25000000  0.75000000  0.75000000  1
  Cr  Cr8  1  0.50530509  0.99801991  0.99820614  1
  Ni  Ni9  1  0.75000000  0.25000000  0.25000000  1
  Cr  Cr10  1  0.50577457  0.99813999  0.50178821  1
  Ni  Ni11  1  0.75000000  0.25000000  0.75000000  1
  Cr  Cr12  1  0.50296926  0.50098897  0.99867281  1
  Ni  Ni13  1  0.75000000  0.75000000  0.25000000  1
  Ni  Ni14  1  0.50441803  0.50142001  0.50181794  1
  Ni  Ni15  1  0.75000000  0.75000000  0.75000000  1
" 