381,NiCr80_2,-61.4379766250156, 147.841373144411,NiCr80,"# generated using pymatgen
 data_Cr3Ni
_symmetry_space_group_name_H-M   'P 1'
_cell_length_a   4.97803174
_cell_length_b   4.97803174
_cell_length_c   7.04000000
_cell_angle_alpha   90.00000000
_cell_angle_beta   90.00000000
_cell_angle_gamma   90.00000000
_symmetry_Int_Tables_number   1
_chemical_formula_structural   Cr3Ni
_chemical_formula_sum   'Cr12 Ni4'
_cell_volume   174.45683200
_cell_formula_units_Z   4
loop_
 _symmetry_equiv_pos_site_id
 _symmetry_equiv_pos_as_xyz
  1  'x, y, z'
loop_
 _atom_site_type_symbol
 _atom_site_label
 _atom_site_symmetry_multiplicity
 _atom_site_fract_x
 _atom_site_fract_y
 _atom_site_fract_z
 _atom_site_occupancy
  Cr  Cr0  1  0.99839734  0.00151644  0.99828447  1
  Ni  Ni1  1  0.25188561  0.24799128  0.25176705  1
  Cr  Cr2  1  0.99841336  0.00161399  0.50145403  1
  Cr  Cr3  1  0.25128243  0.24870014  0.74877166  1
  Cr  Cr4  1  0.99877303  0.49886365  0.99877106  1
  Cr  Cr5  1  0.25142165  0.75122416  0.25145014  1
  Cr  Cr6  1  0.99872918  0.49871709  0.50148182  1
  Cr  Cr7  1  0.25121959  0.75144445  0.74831195  1
  Cr  Cr8  1  0.50141259  0.00129723  0.99874362  1
  Cr  Cr9  1  0.74864778  0.24841205  0.25137086  1
  Ni  Ni10  1  0.50164494  0.00164201  0.50165147  1
  Ni  Ni11  1  0.74819849  0.24851519  0.74855872  1
  Cr  Cr12  1  0.50164536  0.49853299  0.99830255  1
  Cr  Cr13  1  0.74866766  0.75130550  0.25147940  1
  Cr  Cr14  1  0.50161226  0.49842878  0.50143680  1
  Ni  Ni15  1  0.74804873  0.75179503  0.74816441  1
" 