208,NiCr30_1,-67.8767401021637, 137.724551602279,NiCr30,"# generated using pymatgen
 data_CrNi3
_symmetry_space_group_name_H-M   'P 1'
_cell_length_a   4.97803174
_cell_length_b   4.97803174
_cell_length_c   7.04000000
_cell_angle_alpha   90.00000000
_cell_angle_beta   90.00000000
_cell_angle_gamma   90.00000000
_symmetry_Int_Tables_number   1
_chemical_formula_structural   CrNi3
_chemical_formula_sum   'Cr4 Ni12'
_cell_volume   174.45683200
_cell_formula_units_Z   4
loop_
 _symmetry_equiv_pos_site_id
 _symmetry_equiv_pos_as_xyz
  1  'x, y, z'
loop_
 _atom_site_type_symbol
 _atom_site_label
 _atom_site_symmetry_multiplicity
 _atom_site_fract_x
 _atom_site_fract_y
 _atom_site_fract_z
 _atom_site_occupancy
  Ni  Ni0  1  0.99884976  0.00115024  0.99870103  1
  Ni  Ni1  1  0.24857791  0.24851840  0.25410185  1
  Ni  Ni2  1  0.99838182  0.00161818  0.50145257  1
  Ni  Ni3  1  0.24837473  0.24841178  0.74544773  1
  Cr  Cr4  1  0.99831824  0.49827250  0.99842505  1
  Cr  Cr5  1  0.24861560  0.75138440  0.25478784  1
  Ni  Ni6  1  0.99857067  0.49851441  0.50138484  1
  Ni  Ni7  1  0.24847870  0.75152130  0.74564499  1
  Cr  Cr8  1  0.50172750  0.00168176  0.99842505  1
  Ni  Ni9  1  0.75147596  0.24852404  0.25403422  1
  Ni  Ni10  1  0.50148559  0.00142933  0.50138484  1
  Ni  Ni11  1  0.75139296  0.24860704  0.74649432  1
  Cr  Cr12  1  0.50100117  0.49899883  0.99839340  1
  Ni  Ni13  1  0.75148160  0.75142209  0.25410185  1
  Ni  Ni14  1  0.50167957  0.49832043  0.50177265  1
  Ni  Ni15  1  0.75158822  0.75162527  0.74544773  1
" 