443,NiCr60_1,-63.6872253808901, 121.766073173457,NiCr60,"# generated using pymatgen
 data_Cr9Ni7
_symmetry_space_group_name_H-M   'P 1'
_cell_length_a   4.97803174
_cell_length_b   4.97803174
_cell_length_c   7.04000000
_cell_angle_alpha   90.00000000
_cell_angle_beta   90.00000000
_cell_angle_gamma   90.00000000
_symmetry_Int_Tables_number   1
_chemical_formula_structural   Cr9Ni7
_chemical_formula_sum   'Cr9 Ni7'
_cell_volume   174.45683200
_cell_formula_units_Z   1
loop_
 _symmetry_equiv_pos_site_id
 _symmetry_equiv_pos_as_xyz
  1  'x, y, z'
loop_
 _atom_site_type_symbol
 _atom_site_label
 _atom_site_symmetry_multiplicity
 _atom_site_fract_x
 _atom_site_fract_y
 _atom_site_fract_z
 _atom_site_occupancy
  Cr  Cr0  1  0.00126656  0.99831365  0.00175347  1
  Cr  Cr1  1  0.25276137  0.25015903  0.25258888  1
  Cr  Cr2  1  0.00172197  0.99854796  0.49824366  1
  Ni  Ni3  1  0.25342272  0.24986610  0.74663318  1
  Cr  Cr4  1  0.00082225  0.50112018  0.00123988  1
  Ni  Ni5  1  0.25288066  0.75000384  0.25282711  1
  Ni  Ni6  1  0.00189609  0.50172309  0.49815904  1
  Cr  Cr7  1  0.25343141  0.74986693  0.74705165  1
  Ni  Ni8  1  0.49852301  0.99848823  0.00166354  1
  Cr  Cr9  1  0.74703682  0.25016977  0.25364762  1
  Ni  Ni10  1  0.49829644  0.99834466  0.49840191  1
  Cr  Cr11  1  0.74724513  0.25000272  0.74693107  1
  Cr  Cr12  1  0.49830538  0.50177878  0.00175034  1
  Ni  Ni13  1  0.74646699  0.75001143  0.25365874  1
  Ni  Ni14  1  0.49845235  0.50161963  0.49861062  1
  Cr  Cr15  1  0.74747084  0.74998399  0.74683929  1
" 