393,NiCr50_9,-64.6176319956005, 127.308479665728,NiCr50,"# generated using pymatgen
 data_CrNi
_symmetry_space_group_name_H-M   'P 1'
_cell_length_a   4.97803174
_cell_length_b   4.97803174
_cell_length_c   7.04000000
_cell_angle_alpha   90.00000000
_cell_angle_beta   90.00000000
_cell_angle_gamma   90.00000000
_symmetry_Int_Tables_number   1
_chemical_formula_structural   CrNi
_chemical_formula_sum   'Cr8 Ni8'
_cell_volume   174.45683200
_cell_formula_units_Z   8
loop_
 _symmetry_equiv_pos_site_id
 _symmetry_equiv_pos_as_xyz
  1  'x, y, z'
loop_
 _atom_site_type_symbol
 _atom_site_label
 _atom_site_symmetry_multiplicity
 _atom_site_fract_x
 _atom_site_fract_y
 _atom_site_fract_z
 _atom_site_occupancy
  Ni  Ni0  1  0.00476169  0.00191489  0.99843541  1
  Ni  Ni1  1  0.25152293  0.24870111  0.25132604  1
  Cr  Cr2  1  0.00481124  0.00135469  0.50154449  1
  Ni  Ni3  1  0.25150697  0.24849216  0.74861361  1
  Cr  Cr4  1  0.00345870  0.49880429  0.99870623  1
  Cr  Cr5  1  0.25193334  0.75172173  0.25144137  1
  Ni  Ni6  1  0.00494951  0.49832108  0.50167595  1
  Ni  Ni7  1  0.25160501  0.75151814  0.74866082  1
  Ni  Ni8  1  0.49525056  0.00173022  0.99833855  1
  Cr  Cr9  1  0.74833834  0.24841683  0.25159121  1
  Ni  Ni10  1  0.49543256  0.00140410  0.50147876  1
  Cr  Cr11  1  0.74846522  0.24843258  0.74813189  1
  Cr  Cr12  1  0.49528177  0.49856866  0.99818844  1
  Cr  Cr13  1  0.74891224  0.75111785  0.25160203  1
  Ni  Ni14  1  0.49503226  0.49832355  0.50167276  1
  Cr  Cr15  1  0.74873766  0.75117813  0.74859244  1
" 