124,NiCr40_11,-66.2491218279853, 133.896584622775,NiCr40,"# generated using pymatgen
 data_Cr3Ni5
_symmetry_space_group_name_H-M   'P 1'
_cell_length_a   4.97803174
_cell_length_b   4.97803174
_cell_length_c   7.04000000
_cell_angle_alpha   90.00000000
_cell_angle_beta   90.00000000
_cell_angle_gamma   90.00000000
_symmetry_Int_Tables_number   1
_chemical_formula_structural   Cr3Ni5
_chemical_formula_sum   'Cr6 Ni10'
_cell_volume   174.45683200
_cell_formula_units_Z   2
loop_
 _symmetry_equiv_pos_site_id
 _symmetry_equiv_pos_as_xyz
  1  'x, y, z'
loop_
 _atom_site_type_symbol
 _atom_site_label
 _atom_site_symmetry_multiplicity
 _atom_site_fract_x
 _atom_site_fract_y
 _atom_site_fract_z
 _atom_site_occupancy
  Cr  Cr0  1  0.99859140  0.99861049  0.00191611  1
  Ni  Ni1  1  0.25152039  0.25496505  0.24833958  1
  Cr  Cr2  1  0.99872768  0.99860570  0.49784077  1
  Cr  Cr3  1  0.25110024  0.25294227  0.75134272  1
  Ni  Ni4  1  0.99848888  0.50145950  0.00125693  1
  Ni  Ni5  1  0.25187408  0.74497758  0.24833253  1
  Ni  Ni6  1  0.99844864  0.50178575  0.49860889  1
  Cr  Cr7  1  0.25155878  0.74492407  0.75197313  1
  Ni  Ni8  1  0.50182163  0.99844129  0.00166176  1
  Cr  Cr9  1  0.74802115  0.25565404  0.24855910  1
  Cr  Cr10  1  0.50125883  0.99851404  0.49866385  1
  Ni  Ni11  1  0.74853304  0.25450276  0.75134801  1
  Ni  Ni12  1  0.50156977  0.50142633  0.00090863  1
  Ni  Ni13  1  0.74846515  0.74604084  0.24866171  1
  Ni  Ni14  1  0.50120716  0.50158348  0.49912509  1
  Ni  Ni15  1  0.74881317  0.74556679  0.75146120  1
" 