85,NiCr70_12,-62.4637606940944, 136.713944408711,NiCr70,"# generated using pymatgen
 data_Cr11Ni5
_symmetry_space_group_name_H-M   'P 1'
_cell_length_a   4.97803174
_cell_length_b   4.97803174
_cell_length_c   7.04000000
_cell_angle_alpha   90.00000000
_cell_angle_beta   90.00000000
_cell_angle_gamma   90.00000000
_symmetry_Int_Tables_number   1
_chemical_formula_structural   Cr11Ni5
_chemical_formula_sum   'Cr11 Ni5'
_cell_volume   174.45683200
_cell_formula_units_Z   1
loop_
 _symmetry_equiv_pos_site_id
 _symmetry_equiv_pos_as_xyz
  1  'x, y, z'
loop_
 _atom_site_type_symbol
 _atom_site_label
 _atom_site_symmetry_multiplicity
 _atom_site_fract_x
 _atom_site_fract_y
 _atom_site_fract_z
 _atom_site_occupancy
  Cr  Cr0  1  0.00330793  0.00000000  0.00340685  1
  Ni  Ni1  1  0.24826902  0.24839897  0.25463692  1
  Ni  Ni2  1  0.00324317  0.00000000  0.49701960  1
  Cr  Cr3  1  0.24840281  0.24846403  0.74568265  1
  Cr  Cr4  1  0.00258125  0.50000000  0.00238594  1
  Ni  Ni5  1  0.24826902  0.75160103  0.25463692  1
  Ni  Ni6  1  0.00345388  0.50000000  0.49675342  1
  Cr  Cr7  1  0.24840281  0.75153597  0.74568265  1
  Cr  Cr8  1  0.49757033  0.00000000  0.00240365  1
  Cr  Cr9  1  0.75136959  0.24862444  0.25441636  1
  Ni  Ni10  1  0.49676204  0.00000000  0.49674577  1
  Cr  Cr11  1  0.75133473  0.24858514  0.74565522  1
  Cr  Cr12  1  0.49705178  0.50000000  0.00334467  1
  Cr  Cr13  1  0.75136959  0.75137556  0.25441636  1
  Cr  Cr14  1  0.49727732  0.50000000  0.49715781  1
  Cr  Cr15  1  0.75133473  0.75141486  0.74565522  1
" 