220,NiCr60_5,-63.7088140614612, 121.596331143333,NiCr60,"# generated using pymatgen
 data_Cr9Ni7
_symmetry_space_group_name_H-M   'P 1'
_cell_length_a   4.97803174
_cell_length_b   4.97803174
_cell_length_c   7.04000000
_cell_angle_alpha   90.00000000
_cell_angle_beta   90.00000000
_cell_angle_gamma   90.00000000
_symmetry_Int_Tables_number   1
_chemical_formula_structural   Cr9Ni7
_chemical_formula_sum   'Cr9 Ni7'
_cell_volume   174.45683200
_cell_formula_units_Z   1
loop_
 _symmetry_equiv_pos_site_id
 _symmetry_equiv_pos_as_xyz
  1  'x, y, z'
loop_
 _atom_site_type_symbol
 _atom_site_label
 _atom_site_symmetry_multiplicity
 _atom_site_fract_x
 _atom_site_fract_y
 _atom_site_fract_z
 _atom_site_occupancy
  Ni  Ni0  1  0.00000000  0.00000000  0.00000000  1
  Cr  Cr1  1  0.24851197  0.24854920  0.24544044  1
  Cr  Cr2  1  0.00000000  1.00000000  0.50000000  1
  Ni  Ni3  1  0.24834320  0.24827156  0.75496811  1
  Ni  Ni4  1  0.00000000  0.50000000  0.00000000  1
  Ni  Ni5  1  0.24834320  0.75172844  0.24503189  1
  Cr  Cr6  1  0.00000000  0.50000000  0.50000000  1
  Cr  Cr7  1  0.24851197  0.75145080  0.75455956  1
  Ni  Ni8  1  0.50000000  0.00000000  0.00000000  1
  Cr  Cr9  1  0.75148803  0.24854920  0.24544044  1
  Cr  Cr10  1  0.50000000  1.00000000  0.50000000  1
  Ni  Ni11  1  0.75165680  0.24827156  0.75496811  1
  Cr  Cr12  1  0.50000000  0.50000000  0.00000000  1
  Ni  Ni13  1  0.75165680  0.75172844  0.24503189  1
  Cr  Cr14  1  0.50000000  0.50000000  0.50000000  1
  Cr  Cr15  1  0.75148803  0.75145080  0.75455956  1
" 