263,NiCr70_7,-62.2463545467163, 139.248317923323,NiCr70,"# generated using pymatgen
 data_Cr11Ni5
_symmetry_space_group_name_H-M   'P 1'
_cell_length_a   4.97803174
_cell_length_b   4.97803174
_cell_length_c   7.04000000
_cell_angle_alpha   90.00000000
_cell_angle_beta   90.00000000
_cell_angle_gamma   90.00000000
_symmetry_Int_Tables_number   1
_chemical_formula_structural   Cr11Ni5
_chemical_formula_sum   'Cr11 Ni5'
_cell_volume   174.45683200
_cell_formula_units_Z   1
loop_
 _symmetry_equiv_pos_site_id
 _symmetry_equiv_pos_as_xyz
  1  'x, y, z'
loop_
 _atom_site_type_symbol
 _atom_site_label
 _atom_site_symmetry_multiplicity
 _atom_site_fract_x
 _atom_site_fract_y
 _atom_site_fract_z
 _atom_site_occupancy
  Ni  Ni0  1  0.99696738  0.00303262  0.00000000  1
  Ni  Ni1  1  0.24824460  0.24789798  0.24824203  1
  Cr  Cr2  1  0.99734262  0.00265738  0.50000000  1
  Cr  Cr3  1  0.24861239  0.24855681  0.75144223  1
  Cr  Cr4  1  0.99675439  0.49684501  0.00002386  1
  Cr  Cr5  1  0.24876493  0.75102814  0.24848651  1
  Cr  Cr6  1  0.99676693  0.49690376  0.49997489  1
  Cr  Cr7  1  0.24897186  0.75123507  0.75151349  1
  Cr  Cr8  1  0.50315499  0.00324561  0.99997614  1
  Ni  Ni9  1  0.75137077  0.24828130  0.24865437  1
  Cr  Cr10  1  0.50309624  0.00323307  0.50002511  1
  Ni  Ni11  1  0.75171870  0.24862923  0.75134563  1
  Cr  Cr12  1  0.50240968  0.49759032  0.00000000  1
  Cr  Cr13  1  0.75144319  0.75138761  0.24855777  1
  Cr  Cr14  1  0.50227931  0.49772069  0.50000000  1
  Ni  Ni15  1  0.75210202  0.75175540  0.75175797  1
" 