353,NiFe20_8,-71.8678826316447, 212.725636738534,NiFe20,"# generated using pymatgen
 data_Fe3Ni13
_symmetry_space_group_name_H-M   'P 1'
_cell_length_a   4.97803174
_cell_length_b   4.97803174
_cell_length_c   7.04000000
_cell_angle_alpha   90.00000000
_cell_angle_beta   90.00000000
_cell_angle_gamma   90.00000000
_symmetry_Int_Tables_number   1
_chemical_formula_structural   Fe3Ni13
_chemical_formula_sum   'Fe3 Ni13'
_cell_volume   174.45683200
_cell_formula_units_Z   1
loop_
 _symmetry_equiv_pos_site_id
 _symmetry_equiv_pos_as_xyz
  1  'x, y, z'
loop_
 _atom_site_type_symbol
 _atom_site_label
 _atom_site_symmetry_multiplicity
 _atom_site_fract_x
 _atom_site_fract_y
 _atom_site_fract_z
 _atom_site_occupancy
  Fe  Fe0  1  0.00067607  0.99932393  0.00058136  1
  Ni  Ni1  1  0.25000000  0.25000000  0.25000000  1
  Ni  Ni2  1  0.00011245  0.99988755  0.49968911  1
  Ni  Ni3  1  0.25000000  0.25000000  0.75000000  1
  Ni  Ni4  1  0.00011131  0.49990981  0.00028267  1
  Ni  Ni5  1  0.25000000  0.75000000  0.25000000  1
  Ni  Ni6  1  0.99990981  0.50011131  0.49971733  1
  Ni  Ni7  1  0.25000000  0.75000000  0.75000000  1
  Ni  Ni8  1  0.50009019  0.99988869  0.00028267  1
  Ni  Ni9  1  0.75000000  0.25000000  0.25000000  1
  Ni  Ni10  1  0.49988869  0.00009019  0.49971733  1
  Fe  Fe11  1  0.75000000  0.25000000  0.75000000  1
  Ni  Ni12  1  0.49988755  0.50011245  0.00031089  1
  Ni  Ni13  1  0.75000000  0.75000000  0.25000000  1
  Fe  Fe14  1  0.49932393  0.50067607  0.49941864  1
  Ni  Ni15  1  0.75000000  0.75000000  0.75000000  1
" 