119,NiFe60_0,-70.9190248779751, 224.936100325106,NiFe60,"# generated using pymatgen
 data_Fe9Ni7
_symmetry_space_group_name_H-M   'P 1'
_cell_length_a   4.97803174
_cell_length_b   4.97803174
_cell_length_c   7.04000000
_cell_angle_alpha   90.00000000
_cell_angle_beta   90.00000000
_cell_angle_gamma   90.00000000
_symmetry_Int_Tables_number   1
_chemical_formula_structural   Fe9Ni7
_chemical_formula_sum   'Fe9 Ni7'
_cell_volume   174.45683200
_cell_formula_units_Z   1
loop_
 _symmetry_equiv_pos_site_id
 _symmetry_equiv_pos_as_xyz
  1  'x, y, z'
loop_
 _atom_site_type_symbol
 _atom_site_label
 _atom_site_symmetry_multiplicity
 _atom_site_fract_x
 _atom_site_fract_y
 _atom_site_fract_z
 _atom_site_occupancy
  Ni  Ni0  1  0.99996445  0.99997695  0.99997572  1
  Ni  Ni1  1  0.25039879  0.24984477  0.24967130  1
  Ni  Ni2  1  0.99989503  0.00003210  0.50001685  1
  Ni  Ni3  1  0.25039812  0.25021777  0.75039777  1
  Ni  Ni4  1  0.99994030  0.50001214  0.00002296  1
  Ni  Ni5  1  0.25034484  0.75021673  0.24957442  1
  Fe  Fe6  1  0.00180808  0.50008495  0.50005159  1
  Fe  Fe7  1  0.24663095  0.75094415  0.75071080  1
  Fe  Fe8  1  0.49864033  0.99994511  0.99986174  1
  Fe  Fe9  1  0.75240428  0.24935515  0.24942480  1
  Fe  Fe10  1  0.49836654  0.99994756  0.50012290  1
  Fe  Fe11  1  0.75256547  0.24905593  0.75062043  1
  Fe  Fe12  1  0.49860624  0.50004120  0.99993990  1
  Fe  Fe13  1  0.75236462  0.75064395  0.24941881  1
  Fe  Fe14  1  0.49892835  0.50000660  0.50001085  1
  Ni  Ni15  1  0.74874361  0.74967492  0.75017917  1
" 