354,NiFe50_7,-71.2757219887767, 227.757693808666,NiFe50,"# generated using pymatgen
 data_FeNi
_symmetry_space_group_name_H-M   'P 1'
_cell_length_a   4.97803174
_cell_length_b   4.97803174
_cell_length_c   7.04000000
_cell_angle_alpha   90.00000000
_cell_angle_beta   90.00000000
_cell_angle_gamma   90.00000000
_symmetry_Int_Tables_number   1
_chemical_formula_structural   FeNi
_chemical_formula_sum   'Fe8 Ni8'
_cell_volume   174.45683200
_cell_formula_units_Z   8
loop_
 _symmetry_equiv_pos_site_id
 _symmetry_equiv_pos_as_xyz
  1  'x, y, z'
loop_
 _atom_site_type_symbol
 _atom_site_label
 _atom_site_symmetry_multiplicity
 _atom_site_fract_x
 _atom_site_fract_y
 _atom_site_fract_z
 _atom_site_occupancy
  Fe  Fe0  1  0.00000000  0.00000000  0.00000000  1
  Ni  Ni1  1  0.25022786  0.25000000  0.25000000  1
  Fe  Fe2  1  0.00000000  0.00000000  0.50000000  1
  Ni  Ni3  1  0.24948016  0.25000000  0.75000000  1
  Fe  Fe4  1  0.00000000  0.50000000  0.00000000  1
  Fe  Fe5  1  0.25190567  0.75000000  0.25000000  1
  Fe  Fe6  1  0.00000000  0.50000000  0.50000000  1
  Ni  Ni7  1  0.25023346  0.75000000  0.75000000  1
  Ni  Ni8  1  0.50000000  0.00000000  0.00000000  1
  Ni  Ni9  1  0.74976654  0.25000000  0.25000000  1
  Fe  Fe10  1  0.50000000  0.00000000  0.50000000  1
  Fe  Fe11  1  0.74809433  0.25000000  0.75000000  1
  Fe  Fe12  1  0.50000000  0.50000000  0.00000000  1
  Ni  Ni13  1  0.75051984  0.75000000  0.25000000  1
  Ni  Ni14  1  0.50000000  0.50000000  0.50000000  1
  Ni  Ni15  1  0.74977214  0.75000000  0.75000000  1
" 