426,NiFe60_5,-70.9083951999886, 218.299617825165,NiFe60,"# generated using pymatgen
 data_Fe9Ni7
_symmetry_space_group_name_H-M   'P 1'
_cell_length_a   4.97803174
_cell_length_b   4.97803174
_cell_length_c   7.04000000
_cell_angle_alpha   90.00000000
_cell_angle_beta   90.00000000
_cell_angle_gamma   90.00000000
_symmetry_Int_Tables_number   1
_chemical_formula_structural   Fe9Ni7
_chemical_formula_sum   'Fe9 Ni7'
_cell_volume   174.45683200
_cell_formula_units_Z   1
loop_
 _symmetry_equiv_pos_site_id
 _symmetry_equiv_pos_as_xyz
  1  'x, y, z'
loop_
 _atom_site_type_symbol
 _atom_site_label
 _atom_site_symmetry_multiplicity
 _atom_site_fract_x
 _atom_site_fract_y
 _atom_site_fract_z
 _atom_site_occupancy
  Ni  Ni0  1  0.00000790  0.00005242  0.99919502  1
  Ni  Ni1  1  0.25094450  0.25027489  0.24973511  1
  Ni  Ni2  1  0.00001792  0.00006604  0.50077718  1
  Fe  Fe3  1  0.24742430  0.24915182  0.75066321  1
  Ni  Ni4  1  0.99996114  0.49994545  0.99926023  1
  Fe  Fe5  1  0.24771347  0.75099518  0.24932775  1
  Fe  Fe6  1  0.00013030  0.49981221  0.50136825  1
  Ni  Ni7  1  0.24942055  0.74981564  0.75033913  1
  Fe  Fe8  1  0.49986809  0.00002433  0.99869817  1
  Fe  Fe9  1  0.75298480  0.24924007  0.24936846  1
  Fe  Fe10  1  0.49984495  0.00005874  0.50132989  1
  Ni  Ni11  1  0.74945239  0.24979775  0.75033042  1
  Fe  Fe12  1  0.49988611  0.49997892  0.99871598  1
  Fe  Fe13  1  0.75202921  0.75069714  0.24938841  1
  Fe  Fe14  1  0.49992450  0.49997106  0.50123327  1
  Ni  Ni15  1  0.75038986  0.75011835  0.75026952  1
" 