5,NiFe40_3,-71.5686181982343, 222.724408361086,NiFe40,"# generated using pymatgen
 data_Fe3Ni5
_symmetry_space_group_name_H-M   'P 1'
_cell_length_a   4.97803174
_cell_length_b   4.97803174
_cell_length_c   7.04000000
_cell_angle_alpha   90.00000000
_cell_angle_beta   90.00000000
_cell_angle_gamma   90.00000000
_symmetry_Int_Tables_number   1
_chemical_formula_structural   Fe3Ni5
_chemical_formula_sum   'Fe6 Ni10'
_cell_volume   174.45683200
_cell_formula_units_Z   2
loop_
 _symmetry_equiv_pos_site_id
 _symmetry_equiv_pos_as_xyz
  1  'x, y, z'
loop_
 _atom_site_type_symbol
 _atom_site_label
 _atom_site_symmetry_multiplicity
 _atom_site_fract_x
 _atom_site_fract_y
 _atom_site_fract_z
 _atom_site_occupancy
  Ni  Ni0  1  0.99982183  0.00006227  0.99969374  1
  Ni  Ni1  1  0.25015616  0.25017013  0.24972394  1
  Fe  Fe2  1  0.00098976  0.00075638  0.50064318  1
  Ni  Ni3  1  0.24982023  0.24987687  0.75033509  1
  Ni  Ni4  1  0.00019060  0.49987254  0.99969251  1
  Ni  Ni5  1  0.25015014  0.74993010  0.24971669  1
  Ni  Ni6  1  0.99987772  0.50016781  0.50037499  1
  Fe  Fe7  1  0.24921070  0.74933256  0.75056006  1
  Fe  Fe8  1  0.49921643  0.00068803  0.99935314  1
  Fe  Fe9  1  0.75073317  0.25064490  0.24944610  1
  Ni  Ni10  1  0.50032518  0.99973631  0.50021359  1
  Ni  Ni11  1  0.75002571  0.25018364  0.75027097  1
  Ni  Ni12  1  0.49987037  0.50012983  0.99961608  1
  Fe  Fe13  1  0.75076799  0.74940997  0.24941627  1
  Fe  Fe14  1  0.49907741  0.49912360  0.50069811  1
  Ni  Ni15  1  0.74976660  0.74991505  0.75024555  1
" 