199,NiFe30_3,-71.912115027304, 217.204794118667,NiFe30,"# generated using pymatgen
 data_FeNi3
_symmetry_space_group_name_H-M   'P 1'
_cell_length_a   4.97803174
_cell_length_b   4.97803174
_cell_length_c   7.04000000
_cell_angle_alpha   90.00000000
_cell_angle_beta   90.00000000
_cell_angle_gamma   90.00000000
_symmetry_Int_Tables_number   1
_chemical_formula_structural   FeNi3
_chemical_formula_sum   'Fe4 Ni12'
_cell_volume   174.45683200
_cell_formula_units_Z   4
loop_
 _symmetry_equiv_pos_site_id
 _symmetry_equiv_pos_as_xyz
  1  'x, y, z'
loop_
 _atom_site_type_symbol
 _atom_site_label
 _atom_site_symmetry_multiplicity
 _atom_site_fract_x
 _atom_site_fract_y
 _atom_site_fract_z
 _atom_site_occupancy
  Ni  Ni0  1  0.00000000  0.00019505  0.00000000  1
  Fe  Fe1  1  0.25000000  0.24857593  0.25120466  1
  Ni  Ni2  1  0.00000000  0.99953357  0.50000000  1
  Ni  Ni3  1  0.25000000  0.24993968  0.74946053  1
  Fe  Fe4  1  0.00000000  0.50143781  0.00000000  1
  Ni  Ni5  1  0.25000000  0.74987705  0.25072746  1
  Ni  Ni6  1  0.00000000  0.50000638  0.50000000  1
  Ni  Ni7  1  0.25000000  0.75043453  0.74939003  1
  Ni  Ni8  1  0.50000000  0.00019505  0.00000000  1
  Ni  Ni9  1  0.75000000  0.24993968  0.25053947  1
  Ni  Ni10  1  0.50000000  0.99953357  0.50000000  1
  Fe  Fe11  1  0.75000000  0.24857593  0.74879534  1
  Fe  Fe12  1  0.50000000  0.50143781  0.00000000  1
  Ni  Ni13  1  0.75000000  0.75043453  0.25060997  1
  Ni  Ni14  1  0.50000000  0.50000638  0.50000000  1
  Ni  Ni15  1  0.75000000  0.74987705  0.74927254  1
" 