416,NiFe70_6,-69.9199035834951, 211.6459580018,NiFe70,"# generated using pymatgen
 data_Fe11Ni5
_symmetry_space_group_name_H-M   'P 1'
_cell_length_a   4.97803174
_cell_length_b   4.97803174
_cell_length_c   7.04000000
_cell_angle_alpha   90.00000000
_cell_angle_beta   90.00000000
_cell_angle_gamma   90.00000000
_symmetry_Int_Tables_number   1
_chemical_formula_structural   Fe11Ni5
_chemical_formula_sum   'Fe11 Ni5'
_cell_volume   174.45683200
_cell_formula_units_Z   1
loop_
 _symmetry_equiv_pos_site_id
 _symmetry_equiv_pos_as_xyz
  1  'x, y, z'
loop_
 _atom_site_type_symbol
 _atom_site_label
 _atom_site_symmetry_multiplicity
 _atom_site_fract_x
 _atom_site_fract_y
 _atom_site_fract_z
 _atom_site_occupancy
  Ni  Ni0  1  0.99985312  0.99960781  0.00000000  1
  Fe  Fe1  1  0.25094087  0.24920154  0.24920907  1
  Fe  Fe2  1  0.99871701  0.00144324  0.50000000  1
  Fe  Fe3  1  0.25094087  0.24920154  0.75079093  1
  Fe  Fe4  1  0.99876963  0.49827099  0.00000000  1
  Fe  Fe5  1  0.25057397  0.75052419  0.24933294  1
  Fe  Fe6  1  0.99809880  0.49861107  0.50000000  1
  Fe  Fe7  1  0.25057397  0.75052419  0.75066706  1
  Ni  Ni8  1  0.50052459  0.99971033  0.00000000  1
  Ni  Ni9  1  0.75009805  0.25012964  0.24962377  1
  Fe  Fe10  1  0.50166579  0.00220667  0.50000000  1
  Ni  Ni11  1  0.75009805  0.25012964  0.75037623  1
  Fe  Fe12  1  0.50145199  0.49829795  0.00000000  1
  Fe  Fe13  1  0.74910596  0.75075420  0.24937094  1
  Ni  Ni14  1  0.49948135  0.50063281  0.50000000  1
  Fe  Fe15  1  0.74910596  0.75075420  0.75062906  1
" 