211,NiFe70_5,-70.0416071167678, 207.548334426054,NiFe70,"# generated using pymatgen
 data_Fe11Ni5
_symmetry_space_group_name_H-M   'P 1'
_cell_length_a   4.97803174
_cell_length_b   4.97803174
_cell_length_c   7.04000000
_cell_angle_alpha   90.00000000
_cell_angle_beta   90.00000000
_cell_angle_gamma   90.00000000
_symmetry_Int_Tables_number   1
_chemical_formula_structural   Fe11Ni5
_chemical_formula_sum   'Fe11 Ni5'
_cell_volume   174.45683200
_cell_formula_units_Z   1
loop_
 _symmetry_equiv_pos_site_id
 _symmetry_equiv_pos_as_xyz
  1  'x, y, z'
loop_
 _atom_site_type_symbol
 _atom_site_label
 _atom_site_symmetry_multiplicity
 _atom_site_fract_x
 _atom_site_fract_y
 _atom_site_fract_z
 _atom_site_occupancy
  Fe  Fe0  1  0.99932098  0.00059354  0.00064522  1
  Fe  Fe1  1  0.25343560  0.25000000  0.25000000  1
  Fe  Fe2  1  0.99932098  0.00059354  0.49935478  1
  Fe  Fe3  1  0.25277531  0.25000000  0.75000000  1
  Fe  Fe4  1  0.99932098  0.49940646  0.00064522  1
  Fe  Fe5  1  0.25237489  0.75000000  0.25000000  1
  Fe  Fe6  1  0.99932098  0.49940646  0.49935478  1
  Fe  Fe7  1  0.25273848  0.75000000  0.75000000  1
  Ni  Ni8  1  0.50001423  0.00020283  0.00053951  1
  Ni  Ni9  1  0.75061896  0.25000000  0.25000000  1
  Ni  Ni10  1  0.50001423  0.00020283  0.49946049  1
  Fe  Fe11  1  0.74687092  0.25000000  0.75000000  1
  Ni  Ni12  1  0.50001423  0.49979717  0.00053951  1
  Fe  Fe13  1  0.74694758  0.75000000  0.25000000  1
  Ni  Ni14  1  0.50001423  0.49979717  0.49946049  1
  Fe  Fe15  1  0.74689743  0.75000000  0.75000000  1
" 