461,NiFe60_12,-70.9187438835741, 211.845535025507,NiFe60,"# generated using pymatgen
 data_Fe9Ni7
_symmetry_space_group_name_H-M   'P 1'
_cell_length_a   4.97803174
_cell_length_b   4.97803174
_cell_length_c   7.04000000
_cell_angle_alpha   90.00000000
_cell_angle_beta   90.00000000
_cell_angle_gamma   90.00000000
_symmetry_Int_Tables_number   1
_chemical_formula_structural   Fe9Ni7
_chemical_formula_sum   'Fe9 Ni7'
_cell_volume   174.45683200
_cell_formula_units_Z   1
loop_
 _symmetry_equiv_pos_site_id
 _symmetry_equiv_pos_as_xyz
  1  'x, y, z'
loop_
 _atom_site_type_symbol
 _atom_site_label
 _atom_site_symmetry_multiplicity
 _atom_site_fract_x
 _atom_site_fract_y
 _atom_site_fract_z
 _atom_site_occupancy
  Fe  Fe0  1  0.99889581  0.99904588  0.99922366  1
  Fe  Fe1  1  0.25005868  0.24873343  0.25123859  1
  Ni  Ni2  1  0.99980515  0.99965479  0.50043160  1
  Fe  Fe3  1  0.25004934  0.24826310  0.74864772  1
  Fe  Fe4  1  0.99932652  0.50063351  0.99937511  1
  Fe  Fe5  1  0.25008520  0.75159987  0.25134946  1
  Ni  Ni6  1  0.00026759  0.49998987  0.50018810  1
  Ni  Ni7  1  0.25001549  0.74964628  0.74939865  1
  Ni  Ni8  1  0.49972166  0.00023323  0.99968546  1
  Fe  Fe9  1  0.74994979  0.24816980  0.25134950  1
  Ni  Ni10  1  0.50018790  0.00006101  0.50040250  1
  Ni  Ni11  1  0.75001471  0.25060979  0.74939836  1
  Fe  Fe12  1  0.50078513  0.50096672  0.99931128  1
  Ni  Ni13  1  0.74994571  0.74964805  0.25069854  1
  Fe  Fe14  1  0.50095101  0.50079919  0.50072263  1
  Fe  Fe15  1  0.74994031  0.75194549  0.74857886  1
" 