104,NiFe60_4,-71.2805005128144, 213.699620428673,NiFe60,"# generated using pymatgen
 data_Fe9Ni7
_symmetry_space_group_name_H-M   'P 1'
_cell_length_a   4.97803174
_cell_length_b   4.97803174
_cell_length_c   7.04000000
_cell_angle_alpha   90.00000000
_cell_angle_beta   90.00000000
_cell_angle_gamma   90.00000000
_symmetry_Int_Tables_number   1
_chemical_formula_structural   Fe9Ni7
_chemical_formula_sum   'Fe9 Ni7'
_cell_volume   174.45683200
_cell_formula_units_Z   1
loop_
 _symmetry_equiv_pos_site_id
 _symmetry_equiv_pos_as_xyz
  1  'x, y, z'
loop_
 _atom_site_type_symbol
 _atom_site_label
 _atom_site_symmetry_multiplicity
 _atom_site_fract_x
 _atom_site_fract_y
 _atom_site_fract_z
 _atom_site_occupancy
  Ni  Ni0  1  0.00012488  0.00000982  0.99887889  1
  Fe  Fe1  1  0.24994161  0.24859353  0.24870739  1
  Ni  Ni2  1  0.99977681  0.00013744  0.50089840  1
  Ni  Ni3  1  0.25005186  0.24977272  0.75061814  1
  Fe  Fe4  1  0.00076329  0.50065412  0.99802616  1
  Fe  Fe5  1  0.24989777  0.75151921  0.24869741  1
  Fe  Fe6  1  0.00066488  0.50075258  0.50195425  1
  Ni  Ni7  1  0.24997126  0.75042237  0.75074053  1
  Ni  Ni8  1  0.49987634  0.99974197  0.99877965  1
  Fe  Fe9  1  0.75005663  0.24862620  0.24872780  1
  Fe  Fe10  1  0.49920141  0.99928289  0.50206007  1
  Fe  Fe11  1  0.75002776  0.24855348  0.75132139  1
  Ni  Ni12  1  0.50011072  0.50002768  0.99940353  1
  Fe  Fe13  1  0.75010265  0.75148629  0.24870645  1
  Fe  Fe14  1  0.49939109  0.50054554  0.50186219  1
  Ni  Ni15  1  0.75004105  0.74987418  0.75061772  1
" 