67,NiFe30_11,-71.9855488432653, 220.955279760066,NiFe30,"# generated using pymatgen
 data_FeNi3
_symmetry_space_group_name_H-M   'P 1'
_cell_length_a   4.97803174
_cell_length_b   4.97803174
_cell_length_c   7.04000000
_cell_angle_alpha   90.00000000
_cell_angle_beta   90.00000000
_cell_angle_gamma   90.00000000
_symmetry_Int_Tables_number   1
_chemical_formula_structural   FeNi3
_chemical_formula_sum   'Fe4 Ni12'
_cell_volume   174.45683200
_cell_formula_units_Z   4
loop_
 _symmetry_equiv_pos_site_id
 _symmetry_equiv_pos_as_xyz
  1  'x, y, z'
loop_
 _atom_site_type_symbol
 _atom_site_label
 _atom_site_symmetry_multiplicity
 _atom_site_fract_x
 _atom_site_fract_y
 _atom_site_fract_z
 _atom_site_occupancy
  Ni  Ni0  1  0.00026548  0.00000000  0.99948109  1
  Ni  Ni1  1  0.25000000  0.25000000  0.25000000  1
  Ni  Ni2  1  0.99957408  0.00000000  0.50050485  1
  Ni  Ni3  1  0.25000000  0.25000000  0.75000000  1
  Fe  Fe4  1  0.00169364  0.50000000  0.99885173  1
  Ni  Ni5  1  0.25000000  0.75000000  0.25000000  1
  Ni  Ni6  1  0.00027500  0.50000000  0.50059432  1
  Ni  Ni7  1  0.25000000  0.75000000  0.75000000  1
  Ni  Ni8  1  0.49972500  0.00000000  0.99940568  1
  Fe  Fe9  1  0.75000000  0.25000000  0.25000000  1
  Fe  Fe10  1  0.49830636  0.00000000  0.50114827  1
  Ni  Ni11  1  0.75000000  0.25000000  0.75000000  1
  Ni  Ni12  1  0.50042592  0.50000000  0.99949515  1
  Fe  Fe13  1  0.75000000  0.75000000  0.25000000  1
  Ni  Ni14  1  0.49973452  0.50000000  0.50051891  1
  Ni  Ni15  1  0.75000000  0.75000000  0.75000000  1
" 