269,NiFe50_9,-71.853954222093, 213.580585412835,NiFe50,"# generated using pymatgen
 data_FeNi
_symmetry_space_group_name_H-M   'P 1'
_cell_length_a   4.97803174
_cell_length_b   4.97803174
_cell_length_c   7.04000000
_cell_angle_alpha   90.00000000
_cell_angle_beta   90.00000000
_cell_angle_gamma   90.00000000
_symmetry_Int_Tables_number   1
_chemical_formula_structural   FeNi
_chemical_formula_sum   'Fe8 Ni8'
_cell_volume   174.45683200
_cell_formula_units_Z   8
loop_
 _symmetry_equiv_pos_site_id
 _symmetry_equiv_pos_as_xyz
  1  'x, y, z'
loop_
 _atom_site_type_symbol
 _atom_site_label
 _atom_site_symmetry_multiplicity
 _atom_site_fract_x
 _atom_site_fract_y
 _atom_site_fract_z
 _atom_site_occupancy
  Fe  Fe0  1  0.00000000  0.00000000  0.99742706  1
  Fe  Fe1  1  0.25006819  0.24855892  0.25124139  1
  Ni  Ni2  1  0.00000000  0.00000000  0.50154929  1
  Ni  Ni3  1  0.24999377  0.24966068  0.74932450  1
  Fe  Fe4  1  0.00000000  0.50000000  0.99758971  1
  Fe  Fe5  1  0.25006819  0.75144108  0.25124139  1
  Ni  Ni6  1  0.00000000  0.50000000  0.50084439  1
  Ni  Ni7  1  0.24999377  0.75033932  0.74932450  1
  Ni  Ni8  1  0.50000000  0.00000000  0.99887373  1
  Fe  Fe9  1  0.74993181  0.24855892  0.25124139  1
  Ni  Ni10  1  0.50000000  0.00000000  0.50142307  1
  Ni  Ni11  1  0.75000623  0.24966068  0.74932450  1
  Fe  Fe12  1  0.50000000  0.50000000  0.99749021  1
  Fe  Fe13  1  0.74993181  0.75144108  0.25124139  1
  Fe  Fe14  1  0.50000000  0.50000000  0.50253896  1
  Ni  Ni15  1  0.75000623  0.75033932  0.74932450  1
" 