384,NiFe20_3,-71.985038360034, 206.962027275668,NiFe20,"# generated using pymatgen
 data_Fe3Ni13
_symmetry_space_group_name_H-M   'P 1'
_cell_length_a   4.97803174
_cell_length_b   4.97803174
_cell_length_c   7.04000000
_cell_angle_alpha   90.00000000
_cell_angle_beta   90.00000000
_cell_angle_gamma   90.00000000
_symmetry_Int_Tables_number   1
_chemical_formula_structural   Fe3Ni13
_chemical_formula_sum   'Fe3 Ni13'
_cell_volume   174.45683200
_cell_formula_units_Z   1
loop_
 _symmetry_equiv_pos_site_id
 _symmetry_equiv_pos_as_xyz
  1  'x, y, z'
loop_
 _atom_site_type_symbol
 _atom_site_label
 _atom_site_symmetry_multiplicity
 _atom_site_fract_x
 _atom_site_fract_y
 _atom_site_fract_z
 _atom_site_occupancy
  Ni  Ni0  1  0.00012587  0.00012587  0.99965085  1
  Ni  Ni1  1  0.25000000  0.25000000  0.24934982  1
  Fe  Fe2  1  0.00082509  0.00082509  0.50055902  1
  Ni  Ni3  1  0.25000000  0.25000000  0.75076789  1
  Ni  Ni4  1  0.00008556  0.49991444  0.99974827  1
  Ni  Ni5  1  0.25000000  0.75000000  0.24942053  1
  Ni  Ni6  1  0.99978771  0.50021229  0.50025986  1
  Ni  Ni7  1  0.25000000  0.75000000  0.75056506  1
  Ni  Ni8  1  0.49991444  0.00008556  0.99974827  1
  Ni  Ni9  1  0.75000000  0.25000000  0.24942053  1
  Ni  Ni10  1  0.50021229  0.99978771  0.50025986  1
  Ni  Ni11  1  0.75000000  0.25000000  0.75056506  1
  Ni  Ni12  1  0.49987413  0.49987413  0.99965085  1
  Fe  Fe13  1  0.75000000  0.75000000  0.24891255  1
  Fe  Fe14  1  0.49917491  0.49917491  0.50055902  1
  Ni  Ni15  1  0.75000000  0.75000000  0.75056258  1
" 