379,NiFe50_8,-71.4867212308026, 224.807045120494,NiFe50,"# generated using pymatgen
 data_FeNi
_symmetry_space_group_name_H-M   'P 1'
_cell_length_a   4.97803174
_cell_length_b   4.97803174
_cell_length_c   7.04000000
_cell_angle_alpha   90.00000000
_cell_angle_beta   90.00000000
_cell_angle_gamma   90.00000000
_symmetry_Int_Tables_number   1
_chemical_formula_structural   FeNi
_chemical_formula_sum   'Fe8 Ni8'
_cell_volume   174.45683200
_cell_formula_units_Z   8
loop_
 _symmetry_equiv_pos_site_id
 _symmetry_equiv_pos_as_xyz
  1  'x, y, z'
loop_
 _atom_site_type_symbol
 _atom_site_label
 _atom_site_symmetry_multiplicity
 _atom_site_fract_x
 _atom_site_fract_y
 _atom_site_fract_z
 _atom_site_occupancy
  Fe  Fe0  1  0.00188712  0.99938319  0.00060307  1
  Ni  Ni1  1  0.24998562  0.25013311  0.25043798  1
  Ni  Ni2  1  0.99897642  0.00035588  0.49983064  1
  Ni  Ni3  1  0.24986917  0.25009737  0.74963838  1
  Fe  Fe4  1  0.00278050  0.50080750  0.00070418  1
  Ni  Ni5  1  0.25039356  0.74975524  0.25054044  1
  Fe  Fe6  1  0.00251763  0.50099587  0.49927846  1
  Ni  Ni7  1  0.24996144  0.74972560  0.74946859  1
  Fe  Fe8  1  0.49759461  0.99907432  0.00061841  1
  Fe  Fe9  1  0.74930291  0.25080902  0.25061407  1
  Fe  Fe10  1  0.49704922  0.99914881  0.49934326  1
  Fe  Fe11  1  0.74925629  0.25056662  0.74942420  1
  Ni  Ni12  1  0.50058804  0.49977617  0.00024859  1
  Ni  Ni13  1  0.75003201  0.75023239  0.25019850  1
  Ni  Ni14  1  0.50054657  0.49980465  0.49967998  1
  Fe  Fe15  1  0.74925889  0.74933427  0.74937125  1
" 