131,NiFe50_4,-71.4671997190112, 222.523723510561,NiFe50,"# generated using pymatgen
 data_FeNi
_symmetry_space_group_name_H-M   'P 1'
_cell_length_a   4.97803174
_cell_length_b   4.97803174
_cell_length_c   7.04000000
_cell_angle_alpha   90.00000000
_cell_angle_beta   90.00000000
_cell_angle_gamma   90.00000000
_symmetry_Int_Tables_number   1
_chemical_formula_structural   FeNi
_chemical_formula_sum   'Fe8 Ni8'
_cell_volume   174.45683200
_cell_formula_units_Z   8
loop_
 _symmetry_equiv_pos_site_id
 _symmetry_equiv_pos_as_xyz
  1  'x, y, z'
loop_
 _atom_site_type_symbol
 _atom_site_label
 _atom_site_symmetry_multiplicity
 _atom_site_fract_x
 _atom_site_fract_y
 _atom_site_fract_z
 _atom_site_occupancy
  Fe  Fe0  1  0.99988707  0.99988707  0.99872312  1
  Fe  Fe1  1  0.25000000  0.25000000  0.25000000  1
  Fe  Fe2  1  0.99988707  0.99988707  0.50127688  1
  Ni  Ni3  1  0.25000000  0.25000000  0.75000000  1
  Ni  Ni4  1  0.99996362  0.50003638  0.99956023  1
  Fe  Fe5  1  0.25000000  0.75000000  0.25000000  1
  Ni  Ni6  1  0.99996362  0.50003638  0.50043977  1
  Ni  Ni7  1  0.25000000  0.75000000  0.75000000  1
  Ni  Ni8  1  0.50003638  0.99996362  0.99956023  1
  Fe  Fe9  1  0.75000000  0.25000000  0.25000000  1
  Ni  Ni10  1  0.50003638  0.99996362  0.50043977  1
  Ni  Ni11  1  0.75000000  0.25000000  0.75000000  1
  Fe  Fe12  1  0.50011293  0.50011293  0.99872312  1
  Ni  Ni13  1  0.75000000  0.75000000  0.25000000  1
  Fe  Fe14  1  0.50011293  0.50011293  0.50127688  1
  Fe  Fe15  1  0.75000000  0.75000000  0.75000000  1
" 