34,NiFe40_13,-71.950063882142, 226.008523649993,NiFe40,"# generated using pymatgen
 data_Fe3Ni5
_symmetry_space_group_name_H-M   'P 1'
_cell_length_a   4.97803174
_cell_length_b   4.97803174
_cell_length_c   7.04000000
_cell_angle_alpha   90.00000000
_cell_angle_beta   90.00000000
_cell_angle_gamma   90.00000000
_symmetry_Int_Tables_number   1
_chemical_formula_structural   Fe3Ni5
_chemical_formula_sum   'Fe6 Ni10'
_cell_volume   174.45683200
_cell_formula_units_Z   2
loop_
 _symmetry_equiv_pos_site_id
 _symmetry_equiv_pos_as_xyz
  1  'x, y, z'
loop_
 _atom_site_type_symbol
 _atom_site_label
 _atom_site_symmetry_multiplicity
 _atom_site_fract_x
 _atom_site_fract_y
 _atom_site_fract_z
 _atom_site_occupancy
  Fe  Fe0  1  0.00058872  0.99935165  0.99937497  1
  Ni  Ni1  1  0.24938965  0.25011546  0.25034892  1
  Fe  Fe2  1  0.00066699  0.99938136  0.50063231  1
  Ni  Ni3  1  0.25048663  0.25009023  0.74966080  1
  Fe  Fe4  1  0.00074533  0.50076215  0.99936834  1
  Ni  Ni5  1  0.25055697  0.74979229  0.25038757  1
  Fe  Fe6  1  0.00064170  0.50067304  0.50060603  1
  Ni  Ni7  1  0.25066599  0.74976715  0.74954575  1
  Fe  Fe8  1  0.49918902  0.99921337  0.99941022  1
  Fe  Fe9  1  0.74761555  0.25079251  0.25061310  1
  Ni  Ni10  1  0.50002609  0.99994975  0.50032082  1
  Ni  Ni11  1  0.74983041  0.25005042  0.74972945  1
  Ni  Ni12  1  0.50005494  0.49985778  0.99968772  1
  Ni  Ni13  1  0.74975866  0.75019874  0.25027909  1
  Ni  Ni14  1  0.50001862  0.50015860  0.50031361  1
  Ni  Ni15  1  0.74976472  0.74984550  0.74972129  1
" 