294,NiFe80_5,-69.3438274093603, 195.918876709811,NiFe80,"# generated using pymatgen
 data_Fe3Ni
_symmetry_space_group_name_H-M   'P 1'
_cell_length_a   4.97803174
_cell_length_b   4.97803174
_cell_length_c   7.04000000
_cell_angle_alpha   90.00000000
_cell_angle_beta   90.00000000
_cell_angle_gamma   90.00000000
_symmetry_Int_Tables_number   1
_chemical_formula_structural   Fe3Ni
_chemical_formula_sum   'Fe12 Ni4'
_cell_volume   174.45683200
_cell_formula_units_Z   4
loop_
 _symmetry_equiv_pos_site_id
 _symmetry_equiv_pos_as_xyz
  1  'x, y, z'
loop_
 _atom_site_type_symbol
 _atom_site_label
 _atom_site_symmetry_multiplicity
 _atom_site_fract_x
 _atom_site_fract_y
 _atom_site_fract_z
 _atom_site_occupancy
  Ni  Ni0  1  0.99995161  0.99970323  0.00049399  1
  Fe  Fe1  1  0.24805833  0.24935580  0.24933069  1
  Ni  Ni2  1  0.00002684  0.00004175  0.49951580  1
  Fe  Fe3  1  0.24792057  0.24930606  0.75068308  1
  Ni  Ni4  1  0.00002399  0.50019718  0.00042597  1
  Fe  Fe5  1  0.24743938  0.75076469  0.24930767  1
  Fe  Fe6  1  0.99916619  0.50091170  0.49920131  1
  Fe  Fe7  1  0.24783021  0.75075472  0.75067071  1
  Fe  Fe8  1  0.50074886  0.99932135  0.00070912  1
  Fe  Fe9  1  0.75230957  0.24913938  0.24926045  1
  Fe  Fe10  1  0.50080269  0.99927895  0.49927799  1
  Fe  Fe11  1  0.75226545  0.24926169  0.75071812  1
  Fe  Fe12  1  0.50071663  0.50061207  0.00067524  1
  Ni  Ni13  1  0.74980031  0.74995421  0.24966849  1
  Fe  Fe14  1  0.50057808  0.50059629  0.49934841  1
  Fe  Fe15  1  0.75236128  0.75080092  0.75071297  1
" 