151,NiFe20_5,-71.794135987636, 208.508202270046,NiFe20,"# generated using pymatgen
 data_Fe3Ni13
_symmetry_space_group_name_H-M   'P 1'
_cell_length_a   4.97803174
_cell_length_b   4.97803174
_cell_length_c   7.04000000
_cell_angle_alpha   90.00000000
_cell_angle_beta   90.00000000
_cell_angle_gamma   90.00000000
_symmetry_Int_Tables_number   1
_chemical_formula_structural   Fe3Ni13
_chemical_formula_sum   'Fe3 Ni13'
_cell_volume   174.45683200
_cell_formula_units_Z   1
loop_
 _symmetry_equiv_pos_site_id
 _symmetry_equiv_pos_as_xyz
  1  'x, y, z'
loop_
 _atom_site_type_symbol
 _atom_site_label
 _atom_site_symmetry_multiplicity
 _atom_site_fract_x
 _atom_site_fract_y
 _atom_site_fract_z
 _atom_site_occupancy
  Ni  Ni0  1  0.99985520  0.00000000  0.00000000  1
  Ni  Ni1  1  0.25002349  0.25018184  0.25027268  1
  Ni  Ni2  1  0.99988534  0.00000000  0.50000000  1
  Fe  Fe3  1  0.25069071  0.24922148  0.74941557  1
  Fe  Fe4  1  0.99851404  0.50000000  0.00000000  1
  Fe  Fe5  1  0.25069071  0.75077852  0.25058443  1
  Ni  Ni6  1  0.99985295  0.50000000  0.50000000  1
  Ni  Ni7  1  0.25002349  0.74981816  0.74972732  1
  Ni  Ni8  1  0.50033366  0.00000000  0.00000000  1
  Ni  Ni9  1  0.74978582  0.24989070  0.25030754  1
  Ni  Ni10  1  0.50037720  0.00000000  0.50000000  1
  Ni  Ni11  1  0.75006095  0.24985723  0.74963076  1
  Ni  Ni12  1  0.49972535  0.50000000  0.00000000  1
  Ni  Ni13  1  0.75006095  0.75014277  0.25036924  1
  Ni  Ni14  1  0.50033432  0.50000000  0.50000000  1
  Ni  Ni15  1  0.74978582  0.75010930  0.74969246  1
" 