331,NiFe50_12,-71.1025008138531, 220.331492023116,NiFe50,"# generated using pymatgen
 data_FeNi
_symmetry_space_group_name_H-M   'P 1'
_cell_length_a   4.97803174
_cell_length_b   4.97803174
_cell_length_c   7.04000000
_cell_angle_alpha   90.00000000
_cell_angle_beta   90.00000000
_cell_angle_gamma   90.00000000
_symmetry_Int_Tables_number   1
_chemical_formula_structural   FeNi
_chemical_formula_sum   'Fe8 Ni8'
_cell_volume   174.45683200
_cell_formula_units_Z   8
loop_
 _symmetry_equiv_pos_site_id
 _symmetry_equiv_pos_as_xyz
  1  'x, y, z'
loop_
 _atom_site_type_symbol
 _atom_site_label
 _atom_site_symmetry_multiplicity
 _atom_site_fract_x
 _atom_site_fract_y
 _atom_site_fract_z
 _atom_site_occupancy
  Ni  Ni0  1  0.00004639  0.99967870  0.99981978  1
  Ni  Ni1  1  0.24983342  0.24987636  0.24965533  1
  Fe  Fe2  1  0.00067467  0.00089666  0.50067509  1
  Fe  Fe3  1  0.25082674  0.25101351  0.75073186  1
  Fe  Fe4  1  0.00087453  0.49904069  0.99924572  1
  Fe  Fe5  1  0.25069574  0.74903072  0.24927613  1
  Ni  Ni6  1  0.00010993  0.50025105  0.50027680  1
  Ni  Ni7  1  0.24987701  0.75023099  0.75033967  1
  Ni  Ni8  1  0.49982542  0.00009426  0.99969880  1
  Fe  Fe9  1  0.74921197  0.25081868  0.24934013  1
  Fe  Fe10  1  0.49924641  0.00092963  0.50071092  1
  Ni  Ni11  1  0.75026308  0.24980510  0.75025856  1
  Ni  Ni12  1  0.50008595  0.49973544  0.99955072  1
  Fe  Fe13  1  0.74943200  0.74932941  0.24936192  1
  Ni  Ni14  1  0.49977235  0.50015048  0.50035353  1
  Fe  Fe15  1  0.74922441  0.74911831  0.75070503  1
" 