450,NiFe40_5,-71.7768289511137, 230.096109883095,NiFe40,"# generated using pymatgen
 data_Fe3Ni5
_symmetry_space_group_name_H-M   'P 1'
_cell_length_a   4.97803174
_cell_length_b   4.97803174
_cell_length_c   7.04000000
_cell_angle_alpha   90.00000000
_cell_angle_beta   90.00000000
_cell_angle_gamma   90.00000000
_symmetry_Int_Tables_number   1
_chemical_formula_structural   Fe3Ni5
_chemical_formula_sum   'Fe6 Ni10'
_cell_volume   174.45683200
_cell_formula_units_Z   2
loop_
 _symmetry_equiv_pos_site_id
 _symmetry_equiv_pos_as_xyz
  1  'x, y, z'
loop_
 _atom_site_type_symbol
 _atom_site_label
 _atom_site_symmetry_multiplicity
 _atom_site_fract_x
 _atom_site_fract_y
 _atom_site_fract_z
 _atom_site_occupancy
  Ni  Ni0  1  0.00000000  0.00057215  0.00000000  1
  Ni  Ni1  1  0.24974504  0.25000000  0.25000000  1
  Ni  Ni2  1  0.00000000  0.00072709  0.50000000  1
  Ni  Ni3  1  0.24974504  0.25000000  0.75000000  1
  Ni  Ni4  1  0.00000000  0.49927291  0.00000000  1
  Fe  Fe5  1  0.24867888  0.75000000  0.25000000  1
  Ni  Ni6  1  0.00000000  0.49942785  0.50000000  1
  Fe  Fe7  1  0.24867888  0.75000000  0.75000000  1
  Ni  Ni8  1  0.50000000  0.99884788  0.00000000  1
  Ni  Ni9  1  0.75025496  0.25000000  0.25000000  1
  Fe  Fe10  1  0.50000000  0.00348253  0.50000000  1
  Ni  Ni11  1  0.75025496  0.25000000  0.75000000  1
  Fe  Fe12  1  0.50000000  0.49651747  0.00000000  1
  Fe  Fe13  1  0.75132112  0.75000000  0.25000000  1
  Ni  Ni14  1  0.50000000  0.50115212  0.50000000  1
  Fe  Fe15  1  0.75132112  0.75000000  0.75000000  1
" 