222,NiFe40_0,-71.7498064494558, 232.254057016227,NiFe40,"# generated using pymatgen
 data_Fe3Ni5
_symmetry_space_group_name_H-M   'P 1'
_cell_length_a   4.97803174
_cell_length_b   4.97803174
_cell_length_c   7.04000000
_cell_angle_alpha   90.00000000
_cell_angle_beta   90.00000000
_cell_angle_gamma   90.00000000
_symmetry_Int_Tables_number   1
_chemical_formula_structural   Fe3Ni5
_chemical_formula_sum   'Fe6 Ni10'
_cell_volume   174.45683200
_cell_formula_units_Z   2
loop_
 _symmetry_equiv_pos_site_id
 _symmetry_equiv_pos_as_xyz
  1  'x, y, z'
loop_
 _atom_site_type_symbol
 _atom_site_label
 _atom_site_symmetry_multiplicity
 _atom_site_fract_x
 _atom_site_fract_y
 _atom_site_fract_z
 _atom_site_occupancy
  Ni  Ni0  1  0.99982735  0.00049942  0.00029373  1
  Fe  Fe1  1  0.24926104  0.24926741  0.25063120  1
  Ni  Ni2  1  0.00014086  0.99926606  0.49962608  1
  Fe  Fe3  1  0.24940024  0.24920486  0.74937447  1
  Fe  Fe4  1  0.99928893  0.50246994  0.00063701  1
  Ni  Ni5  1  0.24994933  0.74995883  0.25031439  1
  Ni  Ni6  1  0.99981857  0.50018755  0.49970006  1
  Ni  Ni7  1  0.24994555  0.74988339  0.74975475  1
  Ni  Ni8  1  0.50004812  0.00064361  0.00022891  1
  Ni  Ni9  1  0.74985850  0.25005294  0.25027106  1
  Fe  Fe10  1  0.50074244  0.99731935  0.49940229  1
  Fe  Fe11  1  0.75066152  0.24920372  0.74934083  1
  Fe  Fe12  1  0.50064111  0.50248207  0.00060584  1
  Ni  Ni13  1  0.75017325  0.75041521  0.25042234  1
  Ni  Ni14  1  0.50003090  0.49914865  0.49980662  1
  Ni  Ni15  1  0.75021230  0.74999699  0.74959041  1
" 