221,NiFe80_10,-69.0599866036325, 189.111779559116,NiFe80,"# generated using pymatgen
 data_Fe3Ni
_symmetry_space_group_name_H-M   'P 1'
_cell_length_a   4.97803174
_cell_length_b   4.97803174
_cell_length_c   7.04000000
_cell_angle_alpha   90.00000000
_cell_angle_beta   90.00000000
_cell_angle_gamma   90.00000000
_symmetry_Int_Tables_number   1
_chemical_formula_structural   Fe3Ni
_chemical_formula_sum   'Fe12 Ni4'
_cell_volume   174.45683200
_cell_formula_units_Z   4
loop_
 _symmetry_equiv_pos_site_id
 _symmetry_equiv_pos_as_xyz
  1  'x, y, z'
loop_
 _atom_site_type_symbol
 _atom_site_label
 _atom_site_symmetry_multiplicity
 _atom_site_fract_x
 _atom_site_fract_y
 _atom_site_fract_z
 _atom_site_occupancy
  Fe  Fe0  1  0.00000000  0.99886908  0.00000000  1
  Fe  Fe1  1  0.25000000  0.25183540  0.25000000  1
  Fe  Fe2  1  0.00000000  0.99816460  0.50000000  1
  Fe  Fe3  1  0.25000000  0.25113092  0.75000000  1
  Fe  Fe4  1  0.00000000  0.50187836  0.00000000  1
  Ni  Ni5  1  0.25000000  0.75030531  0.25000000  1
  Ni  Ni6  1  0.00000000  0.49969469  0.50000000  1
  Fe  Fe7  1  0.25000000  0.74812164  0.75000000  1
  Fe  Fe8  1  0.50000000  0.99816460  0.00000000  1
  Fe  Fe9  1  0.75000000  0.25113092  0.25000000  1
  Fe  Fe10  1  0.50000000  0.99886908  0.50000000  1
  Fe  Fe11  1  0.75000000  0.25183540  0.75000000  1
  Ni  Ni12  1  0.50000000  0.49969469  0.00000000  1
  Fe  Fe13  1  0.75000000  0.74812164  0.25000000  1
  Fe  Fe14  1  0.50000000  0.50187836  0.50000000  1
  Ni  Ni15  1  0.75000000  0.75030531  0.75000000  1
" 