153,NiFe40_8,-71.8615378079891, 225.945737429208,NiFe40,"# generated using pymatgen
 data_Fe3Ni5
_symmetry_space_group_name_H-M   'P 1'
_cell_length_a   4.97803174
_cell_length_b   4.97803174
_cell_length_c   7.04000000
_cell_angle_alpha   90.00000000
_cell_angle_beta   90.00000000
_cell_angle_gamma   90.00000000
_symmetry_Int_Tables_number   1
_chemical_formula_structural   Fe3Ni5
_chemical_formula_sum   'Fe6 Ni10'
_cell_volume   174.45683200
_cell_formula_units_Z   2
loop_
 _symmetry_equiv_pos_site_id
 _symmetry_equiv_pos_as_xyz
  1  'x, y, z'
loop_
 _atom_site_type_symbol
 _atom_site_label
 _atom_site_symmetry_multiplicity
 _atom_site_fract_x
 _atom_site_fract_y
 _atom_site_fract_z
 _atom_site_occupancy
  Ni  Ni0  1  0.00004265  0.99998138  0.99993559  1
  Fe  Fe1  1  0.24862843  0.25154414  0.25000000  1
  Ni  Ni2  1  0.00004265  0.99998138  0.50006441  1
  Fe  Fe3  1  0.24813704  0.25166648  0.75000000  1
  Ni  Ni4  1  0.99996037  0.50065584  0.99991768  1
  Ni  Ni5  1  0.24976385  0.75023594  0.25000000  1
  Ni  Ni6  1  0.99996037  0.50065584  0.50008232  1
  Ni  Ni7  1  0.25055023  0.75025580  0.75000000  1
  Fe  Fe8  1  0.50006113  0.99843663  0.99998455  1
  Fe  Fe9  1  0.75136378  0.25150485  0.25000000  1
  Fe  Fe10  1  0.50006113  0.99843663  0.50001545  1
  Ni  Ni11  1  0.74937222  0.24918133  0.75000000  1
  Ni  Ni12  1  0.49997720  0.49966384  0.00006800  1
  Ni  Ni13  1  0.75034285  0.75020913  0.25000000  1
  Ni  Ni14  1  0.49997720  0.49966384  0.49993200  1
  Fe  Fe15  1  0.75175890  0.74792697  0.75000000  1
" 