139,NiFe30_4,-71.9228204761839, 212.666152796078,NiFe30,"# generated using pymatgen
 data_FeNi3
_symmetry_space_group_name_H-M   'P 1'
_cell_length_a   4.97803174
_cell_length_b   4.97803174
_cell_length_c   7.04000000
_cell_angle_alpha   90.00000000
_cell_angle_beta   90.00000000
_cell_angle_gamma   90.00000000
_symmetry_Int_Tables_number   1
_chemical_formula_structural   FeNi3
_chemical_formula_sum   'Fe4 Ni12'
_cell_volume   174.45683200
_cell_formula_units_Z   4
loop_
 _symmetry_equiv_pos_site_id
 _symmetry_equiv_pos_as_xyz
  1  'x, y, z'
loop_
 _atom_site_type_symbol
 _atom_site_label
 _atom_site_symmetry_multiplicity
 _atom_site_fract_x
 _atom_site_fract_y
 _atom_site_fract_z
 _atom_site_occupancy
  Ni  Ni0  1  0.00000000  0.00000000  0.00073130  1
  Ni  Ni1  1  0.25000000  0.24974809  0.25000000  1
  Ni  Ni2  1  0.00000000  0.00000000  0.49939852  1
  Fe  Fe3  1  0.25000000  0.24835796  0.75000000  1
  Fe  Fe4  1  0.00000000  0.50000000  0.00113063  1
  Ni  Ni5  1  0.25000000  0.75017634  0.25000000  1
  Ni  Ni6  1  0.00000000  0.50000000  0.49946847  1
  Ni  Ni7  1  0.25000000  0.74955791  0.75000000  1
  Ni  Ni8  1  0.50000000  0.00000000  0.00060148  1
  Ni  Ni9  1  0.75000000  0.24982366  0.25000000  1
  Ni  Ni10  1  0.50000000  0.00000000  0.49926870  1
  Ni  Ni11  1  0.75000000  0.25044209  0.75000000  1
  Ni  Ni12  1  0.50000000  0.50000000  0.00053153  1
  Ni  Ni13  1  0.75000000  0.75025191  0.25000000  1
  Fe  Fe14  1  0.50000000  0.50000000  0.49886937  1
  Fe  Fe15  1  0.75000000  0.75164204  0.75000000  1
" 