327,NiFe60_10,-70.9187438835742, 211.84553501934,NiFe60,"# generated using pymatgen
 data_Fe9Ni7
_symmetry_space_group_name_H-M   'P 1'
_cell_length_a   4.97803174
_cell_length_b   4.97803174
_cell_length_c   7.04000000
_cell_angle_alpha   90.00000000
_cell_angle_beta   90.00000000
_cell_angle_gamma   90.00000000
_symmetry_Int_Tables_number   1
_chemical_formula_structural   Fe9Ni7
_chemical_formula_sum   'Fe9 Ni7'
_cell_volume   174.45683200
_cell_formula_units_Z   1
loop_
 _symmetry_equiv_pos_site_id
 _symmetry_equiv_pos_as_xyz
  1  'x, y, z'
loop_
 _atom_site_type_symbol
 _atom_site_label
 _atom_site_symmetry_multiplicity
 _atom_site_fract_x
 _atom_site_fract_y
 _atom_site_fract_z
 _atom_site_occupancy
  Fe  Fe0  1  0.00079919  0.00095101  0.99927737  1
  Ni  Ni1  1  0.24964805  0.24994571  0.24930146  1
  Fe  Fe2  1  0.00096672  0.00078513  0.50068872  1
  Fe  Fe3  1  0.25194549  0.24994031  0.75142114  1
  Ni  Ni4  1  0.99998987  0.50026759  0.99981190  1
  Fe  Fe5  1  0.25159987  0.75008520  0.24865054  1
  Fe  Fe6  1  0.00063351  0.49932652  0.50062489  1
  Ni  Ni7  1  0.24964628  0.75001549  0.75060135  1
  Ni  Ni8  1  0.50006101  0.00018790  0.99959750  1
  Fe  Fe9  1  0.74816980  0.24994979  0.24865050  1
  Ni  Ni10  1  0.50023323  0.99972166  0.50031454  1
  Ni  Ni11  1  0.75060979  0.25001471  0.75060164  1
  Ni  Ni12  1  0.49965479  0.49980515  0.99956840  1
  Fe  Fe13  1  0.74873343  0.75005868  0.24876141  1
  Fe  Fe14  1  0.49904588  0.49889581  0.50077634  1
  Fe  Fe15  1  0.74826310  0.75004934  0.75135228  1
" 