279,NiFe30_13,-71.9229525374706, 217.071177904481,NiFe30,"# generated using pymatgen
 data_FeNi3
_symmetry_space_group_name_H-M   'P 1'
_cell_length_a   4.97803174
_cell_length_b   4.97803174
_cell_length_c   7.04000000
_cell_angle_alpha   90.00000000
_cell_angle_beta   90.00000000
_cell_angle_gamma   90.00000000
_symmetry_Int_Tables_number   1
_chemical_formula_structural   FeNi3
_chemical_formula_sum   'Fe4 Ni12'
_cell_volume   174.45683200
_cell_formula_units_Z   4
loop_
 _symmetry_equiv_pos_site_id
 _symmetry_equiv_pos_as_xyz
  1  'x, y, z'
loop_
 _atom_site_type_symbol
 _atom_site_label
 _atom_site_symmetry_multiplicity
 _atom_site_fract_x
 _atom_site_fract_y
 _atom_site_fract_z
 _atom_site_occupancy
  Ni  Ni0  1  0.00001214  0.99953501  0.00000000  1
  Ni  Ni1  1  0.25049958  0.25000000  0.25000000  1
  Fe  Fe2  1  0.00149653  0.00167809  0.50000000  1
  Ni  Ni3  1  0.25049958  0.25000000  0.75000000  1
  Fe  Fe4  1  0.00149653  0.49832191  0.00000000  1
  Ni  Ni5  1  0.24974473  0.75000000  0.25000000  1
  Ni  Ni6  1  0.00001214  0.50046499  0.50000000  1
  Ni  Ni7  1  0.24974473  0.75000000  0.75000000  1
  Ni  Ni8  1  0.49956235  0.00022619  0.00000000  1
  Ni  Ni9  1  0.74999976  0.25000000  0.25000000  1
  Ni  Ni10  1  0.50018154  0.00029271  0.50000000  1
  Ni  Ni11  1  0.74999976  0.25000000  0.75000000  1
  Ni  Ni12  1  0.50018154  0.49970729  0.00000000  1
  Fe  Fe13  1  0.74850337  0.75000000  0.25000000  1
  Ni  Ni14  1  0.49956235  0.49977381  0.50000000  1
  Fe  Fe15  1  0.74850337  0.75000000  0.75000000  1
" 