147,NiFe40_11,-71.8398664938277, 224.150313511662,NiFe40,"# generated using pymatgen
 data_Fe3Ni5
_symmetry_space_group_name_H-M   'P 1'
_cell_length_a   4.97803174
_cell_length_b   4.97803174
_cell_length_c   7.04000000
_cell_angle_alpha   90.00000000
_cell_angle_beta   90.00000000
_cell_angle_gamma   90.00000000
_symmetry_Int_Tables_number   1
_chemical_formula_structural   Fe3Ni5
_chemical_formula_sum   'Fe6 Ni10'
_cell_volume   174.45683200
_cell_formula_units_Z   2
loop_
 _symmetry_equiv_pos_site_id
 _symmetry_equiv_pos_as_xyz
  1  'x, y, z'
loop_
 _atom_site_type_symbol
 _atom_site_label
 _atom_site_symmetry_multiplicity
 _atom_site_fract_x
 _atom_site_fract_y
 _atom_site_fract_z
 _atom_site_occupancy
  Ni  Ni0  1  0.00001104  0.99993011  0.99951207  1
  Ni  Ni1  1  0.24954282  0.25000000  0.24951942  1
  Fe  Fe2  1  0.00011773  0.00007264  0.50119822  1
  Fe  Fe3  1  0.25150614  0.25000000  0.75123390  1
  Ni  Ni4  1  0.00001104  0.50006989  0.99951207  1
  Fe  Fe5  1  0.25151018  0.75000000  0.24876438  1
  Fe  Fe6  1  0.00011773  0.49992736  0.50119822  1
  Ni  Ni7  1  0.25027968  0.75000000  0.75063009  1
  Ni  Ni8  1  0.49997184  0.00010852  0.99916636  1
  Fe  Fe9  1  0.74816082  0.25000000  0.24876563  1
  Ni  Ni10  1  0.50000258  0.00010542  0.50068395  1
  Ni  Ni11  1  0.75034501  0.25000000  0.75062039  1
  Ni  Ni12  1  0.49997184  0.49989148  0.99916636  1
  Fe  Fe13  1  0.74862364  0.75000000  0.24884858  1
  Ni  Ni14  1  0.50000258  0.49989458  0.50068395  1
  Ni  Ni15  1  0.74982533  0.75000000  0.75049642  1
" 