282,NiFe50_6,-71.3846769340672, 225.818759986109,NiFe50,"# generated using pymatgen
 data_FeNi
_symmetry_space_group_name_H-M   'P 1'
_cell_length_a   4.97803174
_cell_length_b   4.97803174
_cell_length_c   7.04000000
_cell_angle_alpha   90.00000000
_cell_angle_beta   90.00000000
_cell_angle_gamma   90.00000000
_symmetry_Int_Tables_number   1
_chemical_formula_structural   FeNi
_chemical_formula_sum   'Fe8 Ni8'
_cell_volume   174.45683200
_cell_formula_units_Z   8
loop_
 _symmetry_equiv_pos_site_id
 _symmetry_equiv_pos_as_xyz
  1  'x, y, z'
loop_
 _atom_site_type_symbol
 _atom_site_label
 _atom_site_symmetry_multiplicity
 _atom_site_fract_x
 _atom_site_fract_y
 _atom_site_fract_z
 _atom_site_occupancy
  Ni  Ni0  1  0.00000921  0.99969446  0.99941027  1
  Fe  Fe1  1  0.24869108  0.25003183  0.24999333  1
  Ni  Ni2  1  0.99998783  0.00046659  0.50070473  1
  Ni  Ni3  1  0.25043855  0.24996986  0.75005234  1
  Ni  Ni4  1  0.99999090  0.50041227  0.99923208  1
  Fe  Fe5  1  0.24801194  0.74992508  0.25015337  1
  Fe  Fe6  1  0.99993751  0.50184481  0.50136711  1
  Ni  Ni7  1  0.24965655  0.74996844  0.74993493  1
  Fe  Fe8  1  0.50007753  0.99865141  0.99875827  1
  Fe  Fe9  1  0.75148829  0.25008119  0.25000140  1
  Fe  Fe10  1  0.50004306  0.99812881  0.50130495  1
  Fe  Fe11  1  0.75173165  0.25006572  0.74996180  1
  Fe  Fe12  1  0.50008341  0.50134234  0.99875064  1
  Ni  Ni13  1  0.74948903  0.75005900  0.25004146  1
  Ni  Ni14  1  0.50000546  0.49935176  0.50038449  1
  Ni  Ni15  1  0.75035800  0.75000645  0.74994883  1
" 