299,NiFe30_12,-72.0124566169494, 217.404579513468,NiFe30,"# generated using pymatgen
 data_FeNi3
_symmetry_space_group_name_H-M   'P 1'
_cell_length_a   4.97803174
_cell_length_b   4.97803174
_cell_length_c   7.04000000
_cell_angle_alpha   90.00000000
_cell_angle_beta   90.00000000
_cell_angle_gamma   90.00000000
_symmetry_Int_Tables_number   1
_chemical_formula_structural   FeNi3
_chemical_formula_sum   'Fe4 Ni12'
_cell_volume   174.45683200
_cell_formula_units_Z   4
loop_
 _symmetry_equiv_pos_site_id
 _symmetry_equiv_pos_as_xyz
  1  'x, y, z'
loop_
 _atom_site_type_symbol
 _atom_site_label
 _atom_site_symmetry_multiplicity
 _atom_site_fract_x
 _atom_site_fract_y
 _atom_site_fract_z
 _atom_site_occupancy
  Ni  Ni0  1  0.99994151  0.99994826  0.00027768  1
  Ni  Ni1  1  0.24950622  0.25005788  0.25028375  1
  Ni  Ni2  1  0.99998136  0.99993203  0.49965393  1
  Ni  Ni3  1  0.25050062  0.25004707  0.74972791  1
  Ni  Ni4  1  0.99997427  0.50019273  0.00037643  1
  Ni  Ni5  1  0.24937876  0.74980176  0.25044763  1
  Ni  Ni6  1  0.00029162  0.50017665  0.49961669  1
  Ni  Ni7  1  0.24946034  0.74983896  0.74962493  1
  Fe  Fe8  1  0.49927936  0.99934594  0.00060674  1
  Ni  Ni9  1  0.75019459  0.25007089  0.25027921  1
  Fe  Fe10  1  0.49934816  0.99925291  0.49938632  1
  Fe  Fe11  1  0.75233179  0.25077577  0.74938419  1
  Fe  Fe12  1  0.49931530  0.50070224  0.00058607  1
  Ni  Ni13  1  0.75020351  0.74982785  0.25033754  1
  Ni  Ni14  1  0.50005986  0.49985923  0.49974665  1
  Ni  Ni15  1  0.75023274  0.75016983  0.74966433  1
" 