# generated using pymatgen
data_Al
_symmetry_space_group_name_H-M   'P 1'
_cell_length_a   12.1380
_cell_length_b   12.1380
_cell_length_c   12.1380
_cell_angle_alpha   90.00000000
_cell_angle_beta   90.00000000
_cell_angle_gamma   90.00000000
_symmetry_Int_Tables_number   1
_chemical_formula_structural   Al
_chemical_formula_sum   Al108
_cell_volume   1788.3042
_cell_formula_units_Z   108
loop_
 _symmetry_equiv_pos_site_id
 _symmetry_equiv_pos_as_xyz
  1  'x, y, z'
loop_
 _atom_site_type_symbol
 _atom_site_label
 _atom_site_symmetry_multiplicity
 _atom_site_fract_x
 _atom_site_fract_y
 _atom_site_fract_z
 _atom_site_occupancy
Al1	Al	1	0.000000	0.000000	0.000000	1
Al2	Al	1	0.166667	0.166667	0.000000	1
Al3	Al	1	0.000000	0.166667	0.166667	1
Al4	Al	1	0.166667	0.000000	0.166667	1
Al5	Al	1	0.333333	0.000000	0.000000	1
Al6	Al	1	0.500000	0.166667	0.000000	1
Al7	Al	1	0.333333	0.166667	0.166667	1
Al8	Al	1	0.500000	0.000000	0.166667	1
Al9	Al	1	0.666667	0.000000	0.000000	1
Al10	Al	1	0.833333	0.166667	0.000000	1
Al11	Al	1	0.666667	0.166667	0.166667	1
Al12	Al	1	0.833333	0.000000	0.166667	1
Al13	Al	1	0.000000	0.333333	0.000000	1
Al14	Al	1	0.166667	0.500000	0.000000	1
Al15	Al	1	0.000000	0.500000	0.166667	1
Al16	Al	1	0.166667	0.333333	0.166667	1
Al17	Al	1	0.333333	0.333333	0.000000	1
Al18	Al	1	0.500000	0.500000	0.000000	1
Al19	Al	1	0.333333	0.500000	0.166667	1
Al20	Al	1	0.500000	0.333333	0.166667	1
Al21	Al	1	0.666667	0.333333	0.000000	1
Al22	Al	1	0.833333	0.500000	0.000000	1
Al23	Al	1	0.666667	0.500000	0.166667	1
Al24	Al	1	0.833333	0.333333	0.166667	1
Al25	Al	1	0.000000	0.666667	0.000000	1
Al26	Al	1	0.166667	0.833333	0.000000	1
Al27	Al	1	0.000000	0.833333	0.166667	1
Al28	Al	1	0.166667	0.666667	0.166667	1
Al29	Al	1	0.333333	0.666667	0.000000	1
Al30	Al	1	0.500000	0.833333	0.000000	1
Al31	Al	1	0.333333	0.833333	0.166667	1
Al32	Al	1	0.500000	0.666667	0.166667	1
Al33	Al	1	0.666667	0.666667	0.000000	1
Al34	Al	1	0.833333	0.833333	0.000000	1
Al35	Al	1	0.666667	0.833333	0.166667	1
Al36	Al	1	0.833333	0.666667	0.166667	1
Al37	Al	1	0.000000	0.000000	0.333333	1
Al38	Al	1	0.166667	0.166667	0.333333	1
Al39	Al	1	0.000000	0.166667	0.500000	1
Al40	Al	1	0.166667	0.000000	0.500000	1
Al41	Al	1	0.333333	0.000000	0.333333	1
Al42	Al	1	0.500000	0.166667	0.333333	1
Al43	Al	1	0.333333	0.166667	0.500000	1
Al44	Al	1	0.500000	0.000000	0.500000	1
Al45	Al	1	0.666667	0.000000	0.333333	1
Al46	Al	1	0.833333	0.166667	0.333333	1
Al47	Al	1	0.666667	0.166667	0.500000	1
Al48	Al	1	0.833333	0.000000	0.500000	1
Al49	Al	1	0.000000	0.333333	0.333333	1
Al50	Al	1	0.166667	0.500000	0.333333	1
Al51	Al	1	0.000000	0.500000	0.500000	1
Al52	Al	1	0.166667	0.333333	0.500000	1
Al53	Al	1	0.333333	0.333333	0.333333	1
Al54	Al	1	0.500000	0.500000	0.333333	1
Al55	Al	1	0.333333	0.500000	0.500000	1
Al56	Al	1	0.500000	0.333333	0.500000	1
Al57	Al	1	0.666667	0.333333	0.333333	1
Al58	Al	1	0.833333	0.500000	0.333333	1
Al59	Al	1	0.666667	0.500000	0.500000	1
Al60	Al	1	0.833333	0.333333	0.500000	1
Al61	Al	1	0.000000	0.666667	0.333333	1
Al62	Al	1	0.166667	0.833333	0.333333	1
Al63	Al	1	0.000000	0.833333	0.500000	1
Al64	Al	1	0.166667	0.666667	0.500000	1
Al65	Al	1	0.333333	0.666667	0.333333	1
Al66	Al	1	0.500000	0.833333	0.333333	1
Al67	Al	1	0.333333	0.833333	0.500000	1
Al68	Al	1	0.500000	0.666667	0.500000	1
Al69	Al	1	0.666667	0.666667	0.333333	1
Al70	Al	1	0.833333	0.833333	0.333333	1
Al71	Al	1	0.666667	0.833333	0.500000	1
Al72	Al	1	0.833333	0.666667	0.500000	1
Al73	Al	1	0.000000	0.000000	0.666667	1
Al74	Al	1	0.166667	0.166667	0.666667	1
Al75	Al	1	0.000000	0.166667	0.833333	1
Al76	Al	1	0.166667	0.000000	0.833333	1
Al77	Al	1	0.333333	0.000000	0.666667	1
Al78	Al	1	0.500000	0.166667	0.666667	1
Al79	Al	1	0.333333	0.166667	0.833333	1
Al80	Al	1	0.500000	0.000000	0.833333	1
Al81	Al	1	0.666667	0.000000	0.666667	1
Al82	Al	1	0.833333	0.166667	0.666667	1
Al83	Al	1	0.666667	0.166667	0.833333	1
Al84	Al	1	0.833333	0.000000	0.833333	1
Al85	Al	1	0.000000	0.333333	0.666667	1
Al86	Al	1	0.166667	0.500000	0.666667	1
Al87	Al	1	0.000000	0.500000	0.833333	1
Al88	Al	1	0.166667	0.333333	0.833333	1
Al89	Al	1	0.333333	0.333333	0.666667	1
Al90	Al	1	0.500000	0.500000	0.666667	1
Al91	Al	1	0.333333	0.500000	0.833333	1
Al92	Al	1	0.500000	0.333333	0.833333	1
Al93	Al	1	0.666667	0.333333	0.666667	1
Al94	Al	1	0.833333	0.500000	0.666667	1
Al95	Al	1	0.666667	0.500000	0.833333	1
Al96	Al	1	0.833333	0.333333	0.833333	1
Al97	Al	1	0.000000	0.666667	0.666667	1
Al98	Al	1	0.166667	0.833333	0.666667	1
Al99	Al	1	0.000000	0.833333	0.833333	1
Al100	Al	1	0.166667	0.666667	0.833333	1
Al101	Al	1	0.333333	0.666667	0.666667	1
Al102	Al	1	0.500000	0.833333	0.666667	1
Al103	Al	1	0.333333	0.833333	0.833333	1
Al104	Al	1	0.500000	0.666667	0.833333	1
Al105	Al	1	0.666667	0.666667	0.666667	1
Al106	Al	1	0.833333	0.833333	0.666667	1
Al107	Al	1	0.666667	0.833333	0.833333	1
Al108	Al	1	0.833333	0.666667	0.833333	1

