# generated using pymatgen
data_Al
_symmetry_space_group_name_H-M   'P 1'
_cell_length_a   8.5829
_cell_length_b   21.0236
_cell_length_c   14.8660
_cell_angle_alpha   90.00000000
_cell_angle_beta   90.00000000
_cell_angle_gamma   90.00000000
_symmetry_Int_Tables_number   1
_chemical_formula_structural   Al
_chemical_formula_sum   Al162
_cell_volume   2682.4563
_cell_formula_units_Z   162
loop_
 _symmetry_equiv_pos_site_id
 _symmetry_equiv_pos_as_xyz
  1  'x, y, z'
loop_
 _atom_site_type_symbol
 _atom_site_label
 _atom_site_symmetry_multiplicity
 _atom_site_fract_x
 _atom_site_fract_y
 _atom_site_fract_z
 _atom_site_occupancy
Al1	Al	1	0.000000	0.000000	0.000000	1
Al2	Al	1	0.000000	0.111111	0.222222	1
Al3	Al	1	-0.000000	0.222222	0.111111	1
Al4	Al	1	0.166667	0.111111	0.055556	1
Al5	Al	1	0.166667	0.222222	0.277778	1
Al6	Al	1	0.166667	0.000000	0.166667	1
Al7	Al	1	0.333333	0.000000	0.000000	1
Al8	Al	1	0.333333	0.111111	0.222222	1
Al9	Al	1	0.333333	0.222222	0.111111	1
Al10	Al	1	0.500000	0.111111	0.055556	1
Al11	Al	1	0.500000	0.222222	0.277778	1
Al12	Al	1	0.500000	0.000000	0.166667	1
Al13	Al	1	0.666667	0.000000	0.000000	1
Al14	Al	1	0.666667	0.111111	0.222222	1
Al15	Al	1	0.666667	0.222222	0.111111	1
Al16	Al	1	0.833333	0.111111	0.055556	1
Al17	Al	1	0.833333	0.222222	0.277778	1
Al18	Al	1	0.833333	0.000000	0.166667	1
Al19	Al	1	0.000000	0.333333	0.000000	1
Al20	Al	1	0.000000	0.444444	0.222222	1
Al21	Al	1	-0.000000	0.555556	0.111111	1
Al22	Al	1	0.166667	0.444444	0.055556	1
Al23	Al	1	0.166667	0.555556	0.277778	1
Al24	Al	1	0.166667	0.333333	0.166667	1
Al25	Al	1	0.333333	0.333333	0.000000	1
Al26	Al	1	0.333333	0.444444	0.222222	1
Al27	Al	1	0.333333	0.555556	0.111111	1
Al28	Al	1	0.500000	0.444444	0.055556	1
Al29	Al	1	0.500000	0.555556	0.277778	1
Al30	Al	1	0.500000	0.333333	0.166667	1
Al31	Al	1	0.666667	0.333333	0.000000	1
Al32	Al	1	0.666667	0.444444	0.222222	1
Al33	Al	1	0.666667	0.555556	0.111111	1
Al34	Al	1	0.833333	0.444444	0.055556	1
Al35	Al	1	0.833333	0.555556	0.277778	1
Al36	Al	1	0.833333	0.333333	0.166667	1
Al37	Al	1	0.000000	0.666667	0.000000	1
Al38	Al	1	0.000000	0.777778	0.222222	1
Al39	Al	1	-0.000000	0.888889	0.111111	1
Al40	Al	1	0.166667	0.777778	0.055556	1
Al41	Al	1	0.166667	0.888889	0.277778	1
Al42	Al	1	0.166667	0.666667	0.166667	1
Al43	Al	1	0.333333	0.666667	0.000000	1
Al44	Al	1	0.333333	0.777778	0.222222	1
Al45	Al	1	0.333333	0.888889	0.111111	1
Al46	Al	1	0.500000	0.777778	0.055556	1
Al47	Al	1	0.500000	0.888889	0.277778	1
Al48	Al	1	0.500000	0.666667	0.166667	1
Al49	Al	1	0.666667	0.666667	0.000000	1
Al50	Al	1	0.666667	0.777778	0.222222	1
Al51	Al	1	0.666667	0.888889	0.111111	1
Al52	Al	1	0.833333	0.777778	0.055556	1
Al53	Al	1	0.833333	0.888889	0.277778	1
Al54	Al	1	0.833333	0.666667	0.166667	1
Al55	Al	1	0.000000	0.000000	0.333333	1
Al56	Al	1	0.000000	0.111111	0.555556	1
Al57	Al	1	-0.000000	0.222222	0.444444	1
Al58	Al	1	0.166667	0.111111	0.388889	1
Al59	Al	1	0.166667	0.222222	0.611111	1
Al60	Al	1	0.166667	0.000000	0.500000	1
Al61	Al	1	0.333333	0.000000	0.333333	1
Al62	Al	1	0.333333	0.111111	0.555556	1
Al63	Al	1	0.333333	0.222222	0.444444	1
Al64	Al	1	0.500000	0.111111	0.388889	1
Al65	Al	1	0.500000	0.222222	0.611111	1
Al66	Al	1	0.500000	0.000000	0.500000	1
Al67	Al	1	0.666667	0.000000	0.333333	1
Al68	Al	1	0.666667	0.111111	0.555556	1
Al69	Al	1	0.666667	0.222222	0.444444	1
Al70	Al	1	0.833333	0.111111	0.388889	1
Al71	Al	1	0.833333	0.222222	0.611111	1
Al72	Al	1	0.833333	0.000000	0.500000	1
Al73	Al	1	0.000000	0.333333	0.333333	1
Al74	Al	1	0.000000	0.444444	0.555556	1
Al75	Al	1	-0.000000	0.555556	0.444444	1
Al76	Al	1	0.166667	0.444444	0.388889	1
Al77	Al	1	0.166667	0.555556	0.611111	1
Al78	Al	1	0.166667	0.333333	0.500000	1
Al79	Al	1	0.333333	0.333333	0.333333	1
Al80	Al	1	0.333333	0.444444	0.555556	1
Al81	Al	1	0.333333	0.555556	0.444444	1
Al82	Al	1	0.500000	0.444444	0.388889	1
Al83	Al	1	0.500000	0.555556	0.611111	1
Al84	Al	1	0.500000	0.333333	0.500000	1
Al85	Al	1	0.666667	0.333333	0.333333	1
Al86	Al	1	0.666667	0.444444	0.555556	1
Al87	Al	1	0.666667	0.555556	0.444444	1
Al88	Al	1	0.833333	0.444444	0.388889	1
Al89	Al	1	0.833333	0.555556	0.611111	1
Al90	Al	1	0.833333	0.333333	0.500000	1
Al91	Al	1	0.000000	0.666667	0.333333	1
Al92	Al	1	0.000000	0.777778	0.555556	1
Al93	Al	1	-0.000000	0.888889	0.444444	1
Al94	Al	1	0.166667	0.777778	0.388889	1
Al95	Al	1	0.166667	0.888889	0.611111	1
Al96	Al	1	0.166667	0.666667	0.500000	1
Al97	Al	1	0.333333	0.666667	0.333333	1
Al98	Al	1	0.333333	0.777778	0.555556	1
Al99	Al	1	0.333333	0.888889	0.444444	1
Al100	Al	1	0.500000	0.777778	0.388889	1
Al101	Al	1	0.500000	0.888889	0.611111	1
Al102	Al	1	0.500000	0.666667	0.500000	1
Al103	Al	1	0.666667	0.666667	0.333333	1
Al104	Al	1	0.666667	0.777778	0.555556	1
Al105	Al	1	0.666667	0.888889	0.444444	1
Al106	Al	1	0.833333	0.777778	0.388889	1
Al107	Al	1	0.833333	0.888889	0.611111	1
Al108	Al	1	0.833333	0.666667	0.500000	1
Al109	Al	1	0.000000	0.000000	0.666667	1
Al110	Al	1	0.000000	0.111111	0.888889	1
Al111	Al	1	-0.000000	0.222222	0.777778	1
Al112	Al	1	0.166667	0.111111	0.722222	1
Al113	Al	1	0.166667	0.222222	0.944444	1
Al114	Al	1	0.166667	0.000000	0.833333	1
Al115	Al	1	0.333333	0.000000	0.666667	1
Al116	Al	1	0.333333	0.111111	0.888889	1
Al117	Al	1	0.333333	0.222222	0.777778	1
Al118	Al	1	0.500000	0.111111	0.722222	1
Al119	Al	1	0.500000	0.222222	0.944444	1
Al120	Al	1	0.500000	0.000000	0.833333	1
Al121	Al	1	0.666667	0.000000	0.666667	1
Al122	Al	1	0.666667	0.111111	0.888889	1
Al123	Al	1	0.666667	0.222222	0.777778	1
Al124	Al	1	0.833333	0.111111	0.722222	1
Al125	Al	1	0.833333	0.222222	0.944444	1
Al126	Al	1	0.833333	0.000000	0.833333	1
Al127	Al	1	0.000000	0.333333	0.666667	1
Al128	Al	1	0.000000	0.444444	0.888889	1
Al129	Al	1	-0.000000	0.555556	0.777778	1
Al130	Al	1	0.166667	0.444444	0.722222	1
Al131	Al	1	0.166667	0.555556	0.944444	1
Al132	Al	1	0.166667	0.333333	0.833333	1
Al133	Al	1	0.333333	0.333333	0.666667	1
Al134	Al	1	0.333333	0.444444	0.888889	1
Al135	Al	1	0.333333	0.555556	0.777778	1
Al136	Al	1	0.500000	0.444444	0.722222	1
Al137	Al	1	0.500000	0.555556	0.944444	1
Al138	Al	1	0.500000	0.333333	0.833333	1
Al139	Al	1	0.666667	0.333333	0.666667	1
Al140	Al	1	0.666667	0.444444	0.888889	1
Al141	Al	1	0.666667	0.555556	0.777778	1
Al142	Al	1	0.833333	0.444444	0.722222	1
Al143	Al	1	0.833333	0.555556	0.944444	1
Al144	Al	1	0.833333	0.333333	0.833333	1
Al145	Al	1	0.000000	0.666667	0.666667	1
Al146	Al	1	0.000000	0.777778	0.888889	1
Al147	Al	1	-0.000000	0.888889	0.777778	1
Al148	Al	1	0.166667	0.777778	0.722222	1
Al149	Al	1	0.166667	0.888889	0.944444	1
Al150	Al	1	0.166667	0.666667	0.833333	1
Al151	Al	1	0.333333	0.666667	0.666667	1
Al152	Al	1	0.333333	0.777778	0.888889	1
Al153	Al	1	0.333333	0.888889	0.777778	1
Al154	Al	1	0.500000	0.777778	0.722222	1
Al155	Al	1	0.500000	0.888889	0.944444	1
Al156	Al	1	0.500000	0.666667	0.833333	1
Al157	Al	1	0.666667	0.666667	0.666667	1
Al158	Al	1	0.666667	0.777778	0.888889	1
Al159	Al	1	0.666667	0.888889	0.777778	1
Al160	Al	1	0.833333	0.777778	0.722222	1
Al161	Al	1	0.833333	0.888889	0.944444	1
Al162	Al	1	0.833333	0.666667	0.833333	1

