100,Cr,-221.315198214943,-58187.4953486222,bcc,Cr,"# generated using pymatgen
 data_Cr26Fe
_symmetry_space_group_name_H-M   'P 1'
_cell_length_a   8.64192908
_cell_length_b   8.64192908
_cell_length_c   8.64192908
_cell_angle_alpha   90.00000000
_cell_angle_beta   90.00000000
_cell_angle_gamma   90.00000000
_symmetry_Int_Tables_number   1
_chemical_formula_structural   Cr26
_chemical_formula_sum   'Cr54'
_cell_volume   645.40465451
_cell_formula_units_Z   2
loop_
 _symmetry_equiv_pos_site_id
 _symmetry_equiv_pos_as_xyz
  1  'x, y, z'
loop_
 _atom_site_type_symbol
 _atom_site_label
 _atom_site_symmetry_multiplicity
 _atom_site_fract_x
 _atom_site_fract_y
 _atom_site_fract_z
 _atom_site_occupancy
  Cr  Cr0  1  1.10977014  1.10977014  1.10977014  1
  Cr  Cr1  1  0.27762933  0.27762933  0.27762933  1
  Cr  Cr2  1  0.11104431  0.11104431  0.44432010  1
  Cr  Cr3  1  0.11104431  0.44432010  0.11104431  1
  Cr  Cr4  1  1.11096296  0.44432010  0.44432010  1
  Cr  Cr5  1  0.44432010  0.11104431  0.11104431  1
  Cr  Cr6  1  0.44432010  1.11096296  0.44432010  1
  Cr  Cr7  1  0.44432010  0.44432010  1.11096296  1
  Cr  Cr8  1  0.44432006  0.44432006  0.44432006  1
  Cr  Cr9  1  0.61098644  0.27762929  0.27762929  1
  Cr  Cr10  1  0.77883467  1.10979257  1.10979257  1
  Cr  Cr11  1  0.77755958  0.11106867  0.44429562  1
  Cr  Cr12  1  0.77755958  0.44429562  0.11106867  1
  Cr  Cr13  1  0.77764106  0.44429580  0.44429580  1
  Cr  Cr14  1  0.94430833  0.27765360  0.27765360  1
  Cr  Cr15  1  0.27762929  0.61098644  0.27762929  1
  Cr  Cr16  1  1.10979257  0.77883467  1.10979257  1
  Cr  Cr17  1  0.11106867  0.77755958  0.44429562  1
  Cr  Cr18  1  0.44429562  0.77755958  0.11106867  1
  Cr  Cr19  1  0.44429580  0.77764106  0.44429580  1
  Cr  Cr20  1  0.61090508  0.61090508  0.27762930  1
  Cr  Cr21  1  0.77885575  0.77885575  0.11106782  1
  Cr  Cr22  1  0.77756094  0.77756094  0.44299897  1
  Cr  Cr23  1  0.94438981  0.61088073  0.27765378  1
  Cr  Cr24  1  0.27765360  0.94430833  0.27765360  1
  Cr  Cr25  1  0.61088073  0.94438981  0.27765378  1
  Cr  Cr26  1  0.94438845  0.94438845  0.27895042  1
  Cr  Cr27  1  0.27762929  0.27762929  0.61098644  1
  Cr  Cr28  1  1.10979257  1.10979257  0.77883467  1
  Cr  Cr29  1  0.11106867  0.44429562  0.77755958  1
  Cr  Cr30  1  0.44429562  0.11106867  0.77755958  1
  Cr  Cr31  1  0.44429580  0.44429580  0.77764106  1
  Cr  Cr32  1  0.61090508  0.27762930  0.61090508  1
  Cr  Cr33  1  0.77885575  0.11106782  0.77885575  1
  Cr  Cr34  1  0.77756094  0.44299897  0.77756094  1
  Cr  Cr35  1  0.94438981  0.27765378  0.61088073  1
  Cr  Cr36  1  0.27762930  0.61090508  0.61090508  1
  Cr  Cr37  1  0.11106782  0.77885575  0.77885575  1
  Cr  Cr38  1  0.44299897  0.77756094  0.77756094  1
  Cr  Cr39  1  0.61217926  0.61217926  0.61217926  1
  Cr  Cr40  1  0.77855377  0.77855377  0.77855377  1
  Cr  Cr41  1  0.94311473  0.61215683  0.61215683  1
  Cr  Cr42  1  0.27765378  0.94438981  0.61088073  1
  Cr  Cr43  1  0.61215683  0.94311473  0.61215683  1
  Cr  Cr44  1  0.94309364  0.94309364  0.61088157  1
  Cr  Cr45  1  0.27765360  0.27765360  0.94430833  1
  Cr  Cr46  1  0.61088073  0.27765378  0.94438981  1
  Cr  Cr47  1  0.94438845  0.27895042  0.94438845  1
  Cr  Cr48  1  0.27765378  0.61088073  0.94438981  1
  Cr  Cr49  1  0.61215683  0.61215683  0.94311473  1
  Cr  Cr50  1  0.94309364  0.61088157  0.94309364  1
  Cr  Cr51  1  0.27895042  0.94438845  0.94438845  1
  Cr  Cr52  1  0.61088157  0.94309364  0.94309364  1
  Cr  Cr53  1  0.94339563  0.94339563  0.94339563  1
" 
