162,Fe42Cr58_8,-222.158275555728,12.5276732388625,bcc,Fe42Cr58,"# generated using pymatgen
 data_Cr16Fe11
_symmetry_space_group_name_H-M   'P 1'
_cell_length_a   8.62400520
_cell_length_b   8.62400520
_cell_length_c   8.62400520
_cell_angle_alpha   90.00000000
_cell_angle_beta   90.00000000
_cell_angle_gamma   90.00000000
_symmetry_Int_Tables_number   1
_chemical_formula_structural   Cr16Fe11
_chemical_formula_sum   'Cr32 Fe22'
_cell_volume   641.39715539
_cell_formula_units_Z   2
loop_
 _symmetry_equiv_pos_site_id
 _symmetry_equiv_pos_as_xyz
  1  'x, y, z'
loop_
 _atom_site_type_symbol
 _atom_site_label
 _atom_site_symmetry_multiplicity
 _atom_site_fract_x
 _atom_site_fract_y
 _atom_site_fract_z
 _atom_site_occupancy
  Fe  Fe0  1  0.11230190  0.11428994  0.11231297  1
  Fe  Fe1  1  0.27816396  0.27808438  0.27997723  1
  Cr  Cr2  1  0.11315821  0.11322761  0.44456501  1
  Fe  Fe3  1  0.11471234  0.44748172  0.11248378  1
  Cr  Cr4  1  0.11294370  0.44887011  0.44428360  1
  Cr  Cr5  1  0.44656212  1.11122965  0.11492632  1
  Cr  Cr6  1  0.44806103  1.11132098  0.44291840  1
  Cr  Cr7  1  0.44205388  0.44747268  0.11305205  1
  Fe  Fe8  1  0.44421517  0.44681913  0.44408689  1
  Cr  Cr9  1  0.61474836  0.28058614  0.27790785  1
  Fe  Fe10  1  0.77816689  1.11155784  1.11118041  1
  Cr  Cr11  1  0.77521506  1.10987413  0.44717823  1
  Fe  Fe12  1  0.77964008  0.44644978  1.11149721  1
  Cr  Cr13  1  0.78030023  0.44805224  0.44710533  1
  Cr  Cr14  1  0.94419473  0.27669607  0.27831528  1
  Fe  Fe15  1  0.28081756  0.61223742  0.28081879  1
  Cr  Cr16  1  0.11472293  0.77430022  1.11115845  1
  Cr  Cr17  1  1.11168366  0.77431577  0.44675013  1
  Cr  Cr18  1  0.44524868  0.77799281  0.11300998  1
  Fe  Fe19  1  0.44635840  0.77824493  0.44505679  1
  Fe  Fe20  1  0.61229002  0.61204163  0.27896579  1
  Fe  Fe21  1  0.77738743  0.77870349  1.11206000  1
  Cr  Cr22  1  0.77829301  0.77880697  0.44590122  1
  Cr  Cr23  1  0.94301601  0.61225933  0.27648335  1
  Cr  Cr24  1  0.27608735  0.94672449  0.28030543  1
  Fe  Fe25  1  0.61305969  0.94452819  0.27817098  1
  Cr  Cr26  1  0.94727488  0.94773758  0.27697042  1
  Cr  Cr27  1  0.27884325  0.27754259  0.61368040  1
  Cr  Cr28  1  1.10939007  0.11229269  0.78023025  1
  Fe  Fe29  1  1.11144410  0.44729886  0.77959118  1
  Fe  Fe30  1  0.44739880  1.11057187  0.77890384  1
  Cr  Cr31  1  0.44452120  0.44769649  0.78027069  1
  Cr  Cr32  1  0.60956793  0.28038139  0.61218499  1
  Cr  Cr33  1  0.77916202  0.11271762  0.77873088  1
  Cr  Cr34  1  0.78118090  0.44488132  0.77849808  1
  Cr  Cr35  1  0.94835989  0.27758945  0.61077430  1
  Fe  Fe36  1  0.28039272  0.61186946  0.61252740  1
  Cr  Cr37  1  1.11218764  0.77608265  0.77882485  1
  Fe  Fe38  1  0.44555128  0.77910778  0.77896856  1
  Cr  Cr39  1  0.61006184  0.61291613  0.61348326  1
  Fe  Fe40  1  0.77899253  0.77904639  0.77876423  1
  Fe  Fe41  1  0.94559615  0.61217131  0.61427844  1
  Cr  Cr42  1  0.27954939  0.94737238  0.61191730  1
  Fe  Fe43  1  0.61075220  0.94418153  0.61381584  1
  Cr  Cr44  1  0.94708230  0.94701530  0.61203066  1
  Cr  Cr45  1  0.27894474  0.27616074  0.94269722  1
  Cr  Cr46  1  0.61181933  0.27902656  0.94661988  1
  Fe  Fe47  1  0.94589120  0.27923710  0.94696973  1
  Fe  Fe48  1  0.27885213  0.61217568  0.94343276  1
  Cr  Cr49  1  0.61452429  0.61293542  0.94423842  1
  Fe  Fe50  1  0.94406842  0.61189188  0.94525728  1
  Cr  Cr51  1  0.27857153  0.94843077  0.94453431  1
  Fe  Fe52  1  0.61289636  0.94516915  0.94472323  1
  Cr  Cr53  1  0.94492505  0.94553679  0.94781466  1
" 
