879,Ni19Fe11Cr70_4,-227.275118807142,-1169.48717165095,fcc,Ni19Fe11Cr70,"# generated using pymatgen
 data_Cr37Fe5Ni12
_symmetry_space_group_name_H-M   'P 1'
_cell_length_a   7.66079950
_cell_length_b   7.66079950
_cell_length_c   10.83400655
_cell_angle_alpha   90.00000000
_cell_angle_beta   90.00000000
_cell_angle_gamma   90.00000000
_symmetry_Int_Tables_number   1
_chemical_formula_structural   Cr37Fe5Ni12
_chemical_formula_sum   'Cr37 Fe5 Ni12'
_cell_volume   635.82453940
_cell_formula_units_Z   1
loop_
 _symmetry_equiv_pos_site_id
 _symmetry_equiv_pos_as_xyz
  1  'x, y, z'
loop_
 _atom_site_type_symbol
 _atom_site_label
 _atom_site_symmetry_multiplicity
 _atom_site_fract_x
 _atom_site_fract_y
 _atom_site_fract_z
 _atom_site_occupancy
  Cr  Cr0  1  -0.01048617  0.98488504  0.98319763  1
  Cr  Cr1  1  0.16054920  0.14704891  0.15039766  1
  Cr  Cr2  1  -0.00808099  0.98631765  0.32811971  1
  Fe  Fe3  1  0.98694998  0.32094644  -0.01101098  1
  Cr  Cr4  1  -0.00957580  0.32288038  0.32701272  1
  Cr  Cr5  1  0.32100701  0.98438649  -0.01159751  1
  Cr  Cr6  1  0.32227781  -0.00549102  0.32088304  1
  Fe  Fe7  1  0.32201649  0.32141893  0.98706574  1
  Cr  Cr8  1  0.31535949  0.31924214  0.32419473  1
  Ni  Ni9  1  0.49009886  0.15729483  0.15526725  1
  Cr  Cr10  1  0.65217400  -0.01148230  0.98282207  1
  Cr  Cr11  1  0.81279651  0.15493538  0.15568157  1
  Ni  Ni12  1  0.65567878  0.98493942  0.32225875  1
  Cr  Cr13  1  0.65248645  0.31503842  -0.01250096  1
  Cr  Cr14  1  0.65652276  0.31421129  0.32213151  1
  Cr  Cr15  1  0.14894997  0.48936517  0.15257730  1
  Cr  Cr16  1  -0.00564348  0.65603737  0.98490301  1
  Ni  Ni17  1  0.14890257  0.81729474  0.15784076  1
  Fe  Fe18  1  0.98673806  0.65226770  0.32172852  1
  Cr  Cr19  1  0.31480637  0.65819821  -0.01015946  1
  Cr  Cr20  1  0.31461381  0.65735816  0.31631514  1
  Cr  Cr21  1  0.49036737  0.48384764  0.15641014  1
  Cr  Cr22  1  0.48656583  0.83223715  0.16227505  1
  Cr  Cr23  1  0.82203410  0.48686590  0.15439707  1
  Cr  Cr24  1  0.65325456  0.65487090  0.98274688  1
  Cr  Cr25  1  0.82301837  0.81736423  0.15951680  1
  Ni  Ni26  1  0.65666226  0.65408974  0.32134817  1
  Ni  Ni27  1  0.15181183  0.15197638  0.48881768  1
  Cr  Cr28  1  0.98672295  -0.00900951  0.64975049  1
  Cr  Cr29  1  0.98076361  0.32185472  0.64520857  1
  Cr  Cr30  1  0.31919749  0.98220012  0.65230155  1
  Cr  Cr31  1  0.31902224  0.32116297  0.65077652  1
  Cr  Cr32  1  0.49263275  0.14858820  0.48818411  1
  Ni  Ni33  1  0.82229714  0.15439875  0.48270796  1
  Cr  Cr34  1  0.65804913  -0.00571457  0.65830058  1
  Cr  Cr35  1  0.66151915  0.31426770  0.65144387  1
  Cr  Cr36  1  0.15506914  0.50084994  0.49245789  1
  Ni  Ni37  1  0.15131287  0.82085758  0.48896308  1
  Ni  Ni38  1  -0.00888411  0.65589673  0.65353127  1
  Ni  Ni39  1  0.31631899  0.65646510  0.65461665  1
  Cr  Cr40  1  0.49791876  0.49338275  0.48627125  1
  Cr  Cr41  1  0.47785449  0.81602975  0.48296716  1
  Ni  Ni42  1  0.82244076  0.48766570  0.48555653  1
  Cr  Cr43  1  0.81461603  0.81226654  0.48528533  1
  Cr  Cr44  1  0.65655721  0.65226038  0.65778682  1
  Cr  Cr45  1  0.14478333  0.15047615  0.82351466  1
  Cr  Cr46  1  0.49143999  0.15471824  0.82066377  1
  Ni  Ni47  1  0.81918674  0.15917304  0.82388167  1
  Fe  Fe48  1  0.15293652  0.49036754  0.81580146  1
  Ni  Ni49  1  0.15870041  0.81191817  0.81435399  1
  Cr  Cr50  1  0.48200014  0.48935754  0.81999852  1
  Fe  Fe51  1  0.48176656  0.81954969  0.81881787  1
  Cr  Cr52  1  0.82300870  0.48229273  0.82302846  1
  Cr  Cr53  1  0.82804681  0.82751262  0.81832375  1
" 