# generated using pymatgen
data_Zn
_symmetry_space_group_name_H-M   'P 1'
_cell_length_a   7.49535084
_cell_length_b   7.49535084
_cell_length_c   10.60002708
_cell_angle_alpha   90.00000000
_cell_angle_beta   90.00000000
_cell_angle_gamma   90.00000000
_symmetry_Int_Tables_number   1
_chemical_formula_structural   Zn
_chemical_formula_sum   Zn54
_cell_volume   595.51253392
_cell_formula_units_Z   54
loop_
 _symmetry_equiv_pos_site_id
 _symmetry_equiv_pos_as_xyz
  1  'x, y, z'
loop_
 _atom_site_type_symbol
 _atom_site_label
 _atom_site_symmetry_multiplicity
 _atom_site_fract_x
 _atom_site_fract_y
 _atom_site_fract_z
 _atom_site_occupancy
  Zn  Zn0  1  0.79688239  0.22998576  0.88125682  1
  Zn  Zn1  1  0.79151660  0.56744742  0.54661191  1
  Zn  Zn2  1  0.62433583  0.73588055  0.71923572  1
  Zn  Zn3  1  0.79865015  0.90108424  0.55021977  1
  Zn  Zn4  1  0.96281284  0.40394816  0.38133869  1
  Zn  Zn5  1  0.45689961  0.90084255  0.88458073  1
  Zn  Zn6  1  0.12104476  0.56902224  0.21522292  1
  Zn  Zn7  1  0.29339969  0.73474586  0.38042527  1
  Zn  Zn8  1  0.45776367  0.90401852  0.54992616  1
  Zn  Zn9  1  0.29119539  0.40407252  0.04709909  1
  Zn  Zn10  1  0.62740654  0.06878889  0.38155514  1
  Zn  Zn11  1  0.79125643  0.23518881  0.54828459  1
  Zn  Zn12  1  0.63239014  0.40276846  0.04690565  1
  Zn  Zn13  1  0.12441292  0.90170896  0.88360852  1
  Zn  Zn14  1  0.12357570  0.23639022  0.88082445  1
  Zn  Zn15  1  0.45962805  0.56874484  0.88413405  1
  Zn  Zn16  1  0.45840174  0.23432198  0.21609974  1
  Zn  Zn17  1  0.45662621  0.56961107  0.54901820  1
  Zn  Zn18  1  0.95795238  0.40271467  0.05083876  1
  Zn  Zn19  1  0.12442079  0.23056810  0.21557426  1
  Zn  Zn20  1  0.29138660  0.06621837  0.38385189  1
  Zn  Zn21  1  0.78880852  0.56720322  0.21851838  1
  Zn  Zn22  1  0.62819922  0.06753024  0.04691518  1
  Zn  Zn23  1  0.95911157  0.73658794  0.37999967  1
  Zn  Zn24  1  0.79093325  0.89971101  0.21302292  1
  Zn  Zn25  1  0.96124738  0.06816195  0.38021177  1
  Zn  Zn26  1  0.12319942  0.90015000  0.21308950  1
  Zn  Zn27  1  0.62503040  0.39841980  0.71852171  1
  Zn  Zn28  1  0.29257903  0.40129545  0.38430473  1
  Zn  Zn29  1  0.45942199  0.90348983  0.21532460  1
  Zn  Zn30  1  0.62427914  0.40545377  0.37969023  1
  Zn  Zn31  1  0.12825392  0.56825453  0.55069923  1
  Zn  Zn32  1  0.62607640  0.73636043  0.05030832  1
  Zn  Zn33  1  0.95837069  0.06890333  0.71475345  1
  Zn  Zn34  1  0.62592292  0.73590559  0.38114202  1
  Zn  Zn35  1  0.95831609  0.73615682  0.04926240  1
  Zn  Zn36  1  0.12408959  0.23627357  0.54827636  1
  Zn  Zn37  1  0.79271483  0.90132964  0.88327307  1
  Zn  Zn38  1  0.29180676  0.73742789  0.05130426  1
  Zn  Zn39  1  0.29429603  0.40198699  0.71472329  1
  Zn  Zn40  1  0.12549257  0.90237069  0.55052018  1
  Zn  Zn41  1  0.45504087  0.23651212  0.54982114  1
  Zn  Zn42  1  0.45394138  0.23178789  0.88437515  1
  Zn  Zn43  1  0.96345305  0.73266292  0.71787018  1
  Zn  Zn44  1  0.79517162  0.23090506  0.21720555  1
  Zn  Zn45  1  0.96351534  0.40388295  0.71632618  1
  Zn  Zn46  1  0.29155195  0.06773313  0.71682191  1
  Zn  Zn47  1  0.46033746  0.57200861  0.21696222  1
  Zn  Zn48  1  0.28903821  0.73504597  0.71187282  1
  Zn  Zn49  1  0.29366085  0.06692700  0.04966176  1
  Zn  Zn50  1  0.62274063  0.06985117  0.71529233  1
  Zn  Zn51  1  0.12179396  0.57061738  0.88073474  1
  Zn  Zn52  1  0.79810959  0.56826568  0.88479120  1
  Zn  Zn53  1  0.95913237  0.06331111  0.05178145  1
