# generated using pymatgen
data_Zn
_symmetry_space_group_name_H-M   'P 1'
_cell_length_a   7.49854708
_cell_length_b   7.49854708
_cell_length_c   10.60454750
_cell_angle_alpha   90.00000000
_cell_angle_beta   90.00000000
_cell_angle_gamma   90.00000000
_symmetry_Int_Tables_number   1
_chemical_formula_structural   Zn
_chemical_formula_sum   Zn54
_cell_volume   596.27470546
_cell_formula_units_Z   54
loop_
 _symmetry_equiv_pos_site_id
 _symmetry_equiv_pos_as_xyz
  1  'x, y, z'
loop_
 _atom_site_type_symbol
 _atom_site_label
 _atom_site_symmetry_multiplicity
 _atom_site_fract_x
 _atom_site_fract_y
 _atom_site_fract_z
 _atom_site_occupancy
  Zn  Zn0  1  0.99594849  0.99657810  0.33268175  1
  Zn  Zn1  1  0.16313446  0.49856946  0.16433029  1
  Zn  Zn2  1  0.99832284  0.33374020  0.33324000  1
  Zn  Zn3  1  0.33011416  0.33206466  0.00021614  1
  Zn  Zn4  1  0.50036335  0.49830228  0.16663828  1
  Zn  Zn5  1  0.32981145  0.66592848  0.33104458  1
  Zn  Zn6  1  0.66123950  0.99624497  0.99915630  1
  Zn  Zn7  1  0.83382440  0.16298336  0.16278718  1
  Zn  Zn8  1  0.66617811  0.33129895  0.99705744  1
  Zn  Zn9  1  0.83075029  0.50226527  0.16441737  1
  Zn  Zn10  1  0.99566311  0.99814558  0.66189080  1
  Zn  Zn11  1  0.16361900  0.16136312  0.83230925  1
  Zn  Zn12  1  0.99656558  0.33366218  0.66312253  1
  Zn  Zn13  1  0.16342106  0.83149195  0.49774224  1
  Zn  Zn14  1  0.99982685  0.66206843  0.66304034  1
  Zn  Zn15  1  0.49611998  0.16672289  0.49624568  1
  Zn  Zn16  1  0.33318862  0.99332505  0.66509497  1
  Zn  Zn17  1  0.49605817  0.16593517  0.83041251  1
  Zn  Zn18  1  0.49796197  0.49815550  0.49828839  1
  Zn  Zn19  1  0.49837753  0.49999923  0.82934964  1
  Zn  Zn20  1  0.66475618  0.99677342  0.66303980  1
  Zn  Zn21  1  0.83336890  0.16559938  0.83208698  1
  Zn  Zn22  1  0.83446413  0.82923782  0.83321983  1
  Zn  Zn23  1  0.16221371  0.83189219  0.16337503  1
  Zn  Zn24  1  0.32742155  0.99528593  0.99974263  1
  Zn  Zn25  1  0.49644884  0.16301218  0.16812979  1
  Zn  Zn26  1  0.33217570  0.99940819  0.32947063  1
  Zn  Zn27  1  0.33087799  0.32806319  0.32980144  1
  Zn  Zn28  1  0.32936153  0.66813588  0.99683064  1
  Zn  Zn29  1  0.49756247  0.83331370  0.16543001  1
  Zn  Zn30  1  0.66709036  0.66516399  0.99757373  1
  Zn  Zn31  1  0.83358479  0.83041811  0.16535974  1
  Zn  Zn32  1  0.66815460  0.66690719  0.33247337  1
  Zn  Zn33  1  0.16538209  0.16594484  0.49702141  1
  Zn  Zn34  1  0.16547778  0.49871504  0.49762207  1
  Zn  Zn35  1  0.16221271  0.49995518  0.83292150  1
  Zn  Zn36  1  0.16588822  0.82756674  0.83308852  1
  Zn  Zn37  1  0.32884777  0.33351809  0.66403270  1
  Zn  Zn38  1  0.50024176  0.82988942  0.49704918  1
  Zn  Zn39  1  0.49685603  0.82871616  0.83209562  1
  Zn  Zn40  1  0.82843918  0.16420685  0.49592507  1
  Zn  Zn41  1  0.82966459  0.49997059  0.49630278  1
  Zn  Zn42  1  0.66601610  0.33449334  0.66373694  1
  Zn  Zn43  1  0.66563845  0.66505730  0.66358185  1
  Zn  Zn44  1  0.00053361  0.99467093  0.99939960  1
  Zn  Zn45  1  0.16699481  0.15967329  0.16476709  1
  Zn  Zn46  1  0.99967670  0.33341500  0.99655813  1
  Zn  Zn47  1  0.00055613  0.66518682  0.99731761  1
  Zn  Zn48  1  0.99728733  0.66489214  0.33243749  1
  Zn  Zn49  1  0.66152263  0.99706632  0.33147997  1
  Zn  Zn50  1  0.66378671  0.32847562  0.33197278  1
  Zn  Zn51  1  0.33261517  0.66289955  0.66700381  1
  Zn  Zn52  1  0.83127338  0.50119847  0.83212012  1
  Zn  Zn53  1  0.82969886  0.82901204  0.49454618  1
