# generated using pymatgen
data_Zn
_symmetry_space_group_name_H-M   'P 1'
_cell_length_a   7.51610565
_cell_length_b   7.51610565
_cell_length_c   10.62937832
_cell_angle_alpha   90.00000000
_cell_angle_beta   90.00000000
_cell_angle_gamma   90.00000000
_symmetry_Int_Tables_number   1
_chemical_formula_structural   Zn
_chemical_formula_sum   Zn54
_cell_volume   600.47318361
_cell_formula_units_Z   54
loop_
 _symmetry_equiv_pos_site_id
 _symmetry_equiv_pos_as_xyz
  1  'x, y, z'
loop_
 _atom_site_type_symbol
 _atom_site_label
 _atom_site_symmetry_multiplicity
 _atom_site_fract_x
 _atom_site_fract_y
 _atom_site_fract_z
 _atom_site_occupancy
  Zn  Zn0  1  0.99519855  0.99654704  0.99297190  1
  Zn  Zn1  1  0.16404495  0.16346464  0.16803738  1
  Zn  Zn2  1  0.99725056  0.33177751  0.99742752  1
  Zn  Zn3  1  0.16403569  0.83050823  0.16320796  1
  Zn  Zn4  1  0.99736583  0.66200942  0.33123311  1
  Zn  Zn5  1  0.33406144  0.99613416  0.99548942  1
  Zn  Zn6  1  0.49735942  0.16158368  0.16517413  1
  Zn  Zn7  1  0.33132201  0.33110321  0.99604321  1
  Zn  Zn8  1  0.49924126  0.49615148  0.16379260  1
  Zn  Zn9  1  0.33054250  0.66273397  0.99653804  1
  Zn  Zn10  1  0.33017516  0.66187203  0.33013818  1
  Zn  Zn11  1  0.82905257  0.16468072  0.16447029  1
  Zn  Zn12  1  0.82886112  0.82901084  0.16247404  1
  Zn  Zn13  1  0.66252273  0.66370958  0.33114836  1
  Zn  Zn14  1  0.99613059  0.99595630  0.66330767  1
  Zn  Zn15  1  0.16611259  0.16338070  0.82792264  1
  Zn  Zn16  1  0.99773216  0.32899353  0.66334236  1
  Zn  Zn17  1  0.99854958  0.66511387  0.66228426  1
  Zn  Zn18  1  0.49472916  0.16536286  0.49629834  1
  Zn  Zn19  1  0.49447176  0.83071434  0.49597916  1
  Zn  Zn20  1  0.82980627  0.16397360  0.49473014  1
  Zn  Zn21  1  0.66382939  0.99715626  0.66605043  1
  Zn  Zn22  1  0.82780689  0.49509835  0.49599630  1
  Zn  Zn23  1  0.82872421  0.49737763  0.83168888  1
  Zn  Zn24  1  0.66068906  0.66389793  0.66190022  1
  Zn  Zn25  1  0.99757129  0.99787557  0.33353877  1
  Zn  Zn26  1  0.16051859  0.49629119  0.16436045  1
  Zn  Zn27  1  0.99853611  0.33009300  0.32994595  1
  Zn  Zn28  1  0.99588299  0.66230422  0.99575740  1
  Zn  Zn29  1  0.32965225  0.99742329  0.33099583  1
  Zn  Zn30  1  0.32834342  0.33018515  0.33193058  1
  Zn  Zn31  1  0.49894118  0.83169925  0.16327973  1
  Zn  Zn32  1  0.66242582  0.99583042  0.99431044  1
  Zn  Zn33  1  0.66343623  0.99693495  0.32958484  1
  Zn  Zn34  1  0.66318589  0.32993370  0.99467629  1
  Zn  Zn35  1  0.83053374  0.49605584  0.16244490  1
  Zn  Zn36  1  0.66311479  0.33016098  0.33005187  1
  Zn  Zn37  1  0.66351962  0.66434109  0.99616188  1
  Zn  Zn38  1  0.16545536  0.16326992  0.49477243  1
  Zn  Zn39  1  0.16686597  0.49509308  0.49674812  1
  Zn  Zn40  1  0.16609424  0.50010425  0.82938880  1
  Zn  Zn41  1  0.16441266  0.83178759  0.49719936  1
  Zn  Zn42  1  0.16465060  0.82687777  0.82879430  1
  Zn  Zn43  1  0.32964805  0.99608570  0.66430950  1
  Zn  Zn44  1  0.49897847  0.16427940  0.82921183  1
  Zn  Zn45  1  0.49326646  0.49387020  0.49804991  1
  Zn  Zn46  1  0.33158803  0.33165935  0.66328102  1
  Zn  Zn47  1  0.49617475  0.49656346  0.82851291  1
  Zn  Zn48  1  0.32966664  0.66227871  0.66417044  1
  Zn  Zn49  1  0.49638435  0.82935882  0.83073562  1
  Zn  Zn50  1  0.82495070  0.16310178  0.83123565  1
  Zn  Zn51  1  0.65903640  0.32996318  0.66557127  1
  Zn  Zn52  1  0.83221644  0.83224237  0.49442115  1
  Zn  Zn53  1  0.82910353  0.82979387  0.83268219  1
