# generated using pymatgen
data_Zn
_symmetry_space_group_name_H-M   'P 1'
_cell_length_a   7.51244831
_cell_length_b   7.51244831
_cell_length_c   10.62420654
_cell_angle_alpha   90.00000000
_cell_angle_beta   90.00000000
_cell_angle_gamma   90.00000000
_symmetry_Int_Tables_number   1
_chemical_formula_structural   Zn
_chemical_formula_sum   Zn54
_cell_volume   599.59706576
_cell_formula_units_Z   54
loop_
 _symmetry_equiv_pos_site_id
 _symmetry_equiv_pos_as_xyz
  1  'x, y, z'
loop_
 _atom_site_type_symbol
 _atom_site_label
 _atom_site_symmetry_multiplicity
 _atom_site_fract_x
 _atom_site_fract_y
 _atom_site_fract_z
 _atom_site_occupancy
  Zn  Zn0  1  0.02666134  0.22169977  0.30134249  1
  Zn  Zn1  1  0.36005393  0.88152134  0.63124734  1
  Zn  Zn2  1  0.18530828  0.83187699  0.01882659  1
  Zn  Zn3  1  0.19359913  0.38602182  0.12807554  1
  Zn  Zn4  1  0.02703924  0.44157183  0.74370801  1
  Zn  Zn5  1  0.02131608  0.33065456  0.51826411  1
  Zn  Zn6  1  0.36062860  0.99159449  0.85552645  1
  Zn  Zn7  1  0.86146915  0.16253716  0.68403453  1
  Zn  Zn8  1  0.69345164  0.44586423  0.74276876  1
  Zn  Zn9  1  0.19623682  0.93839109  0.24377817  1
  Zn  Zn10  1  0.52727723  0.60732967  0.57440168  1
  Zn  Zn11  1  0.85501277  0.38948748  0.13206570  1
  Zn  Zn12  1  0.02676259  0.88502288  0.63034463  1
  Zn  Zn13  1  0.36763248  0.66284490  0.18367381  1
  Zn  Zn14  1  0.35799879  0.32461533  0.52005017  1
  Zn  Zn15  1  0.19266503  0.61021322  0.57716411  1
  Zn  Zn16  1  0.52881664  0.16178681  0.68760991  1
  Zn  Zn17  1  0.19244121  0.16205306  0.68736595  1
  Zn  Zn18  1  0.85532939  0.93805039  0.24272265  1
  Zn  Zn19  1  0.86023331  0.72034901  0.79666317  1
  Zn  Zn20  1  0.18987042  0.27604955  0.90397108  1
  Zn  Zn21  1  0.85347819  0.26793849  0.91180807  1
  Zn  Zn22  1  0.02935914  0.77653128  0.40877968  1
  Zn  Zn23  1  0.52944630  0.49567711  0.35131860  1
  Zn  Zn24  1  0.19344322  0.50363714  0.35173920  1
  Zn  Zn25  1  0.36367780  0.78049076  0.40771881  1
  Zn  Zn26  1  0.52801108  0.05328273  0.46067250  1
  Zn  Zn27  1  0.85531932  0.50153679  0.35477811  1
  Zn  Zn28  1  0.69440079  0.77385682  0.40963662  1
  Zn  Zn29  1  0.85986322  0.60548675  0.57415617  1
  Zn  Zn30  1  0.36445785  0.10426023  0.07450370  1
  Zn  Zn31  1  0.52939743  0.83018231  0.01847086  1
  Zn  Zn32  1  0.52871466  0.38660306  0.12965237  1
  Zn  Zn33  1  0.85828894  0.82711834  0.02004869  1
  Zn  Zn34  1  0.52238727  0.71703321  0.79947680  1
  Zn  Zn35  1  0.36146018  0.44434717  0.74596012  1
  Zn  Zn36  1  0.02420380  0.10757238  0.07431721  1
  Zn  Zn37  1  0.69522011  0.88675910  0.62740302  1
  Zn  Zn38  1  0.19295548  0.04959933  0.46033275  1
  Zn  Zn39  1  0.19586213  0.71281570  0.79817593  1
  Zn  Zn40  1  0.69304037  0.55272031  0.96670181  1
  Zn  Zn41  1  0.02687433  0.99225473  0.85548651  1
  Zn  Zn42  1  0.36610112  0.55087769  0.96348673  1
  Zn  Zn43  1  0.85606331  0.04984751  0.46266797  1
  Zn  Zn44  1  0.36491746  0.21585117  0.29911289  1
  Zn  Zn45  1  0.52825677  0.27802536  0.90771627  1
  Zn  Zn46  1  0.69131881  0.22330327  0.29945821  1
  Zn  Zn47  1  0.69358087  0.66284025  0.18542096  1
  Zn  Zn48  1  0.69438070  0.32770205  0.51703578  1
  Zn  Zn49  1  0.02646763  0.55429822  0.96261072  1
  Zn  Zn50  1  0.52646422  0.94053006  0.24477805  1
  Zn  Zn51  1  0.69291073  0.99070990  0.85296708  1
  Zn  Zn52  1  0.69285446  0.10375680  0.07358863  1
  Zn  Zn53  1  0.02258048  0.66667646  0.18613811  1
