# generated using pymatgen
data_Fe10Ni17
_symmetry_space_group_name_H-M   'P 1'
_cell_length_a   7.51617146
_cell_length_b   7.51723242
_cell_length_c   10.83000374
_cell_angle_alpha   90.00000000
_cell_angle_beta   90.00000000
_cell_angle_gamma   90.00000000
_symmetry_Int_Tables_number   1
_chemical_formula_structural   Fe10Ni17
_chemical_formula_sum   'Fe20 Ni34'
_cell_volume   611.90395887
_cell_formula_units_Z   2
loop_
 _symmetry_equiv_pos_site_id
 _symmetry_equiv_pos_as_xyz
  1  'x, y, z'
loop_
 _atom_site_type_symbol
 _atom_site_label
 _atom_site_symmetry_multiplicity
 _atom_site_fract_x
 _atom_site_fract_y
 _atom_site_fract_z
 _atom_site_occupancy
  Fe  Fe0  1  0.15318654  0.13764474  0.57769704  1
  Fe  Fe1  1  0.03778084  0.80110353  0.79545885  1
  Fe  Fe2  1  0.98228300  0.97281122  0.40826622  1
  Fe  Fe3  1  0.21079175  0.97338843  0.96455979  1
  Fe  Fe4  1  0.81822687  0.80716676  0.23727678  1
  Fe  Fe5  1  0.37911725  0.80617237  0.12716785  1
  Fe  Fe6  1  0.93234819  0.47092617  0.01525617  1
  Fe  Fe7  1  0.54443783  0.97355729  0.29813883  1
  Fe  Fe8  1  0.98197508  0.30791217  0.40937063  1
  Fe  Fe9  1  0.54200560  0.63424814  0.30261996  1
  Fe  Fe10  1  0.59612721  0.47438258  0.68756729  1
  Fe  Fe11  1  0.98602641  0.63603771  0.41135466  1
  Fe  Fe12  1  0.09969255  0.64101082  0.18832156  1
  Fe  Fe13  1  0.09732726  0.30690074  0.18878433  1
  Fe  Fe14  1  0.92635202  0.80675513  0.01611672  1
  Fe  Fe15  1  0.03920107  0.47309953  0.79765469  1
  Fe  Fe16  1  0.81694007  0.47334677  0.24036007  1
  Fe  Fe17  1  0.42626387  0.63489258  0.52141911  1
  Fe  Fe18  1  0.64807129  0.30358088  0.07465209  1
  Fe  Fe19  1  0.04526610  0.13677211  0.80158442  1
  Ni  Ni20  1  0.76115662  0.63886386  0.85117960  1
  Ni  Ni21  1  0.21244632  0.30674279  0.96441364  1
  Ni  Ni22  1  0.87105918  0.63948178  0.63004041  1
  Ni  Ni23  1  0.26458836  0.81120574  0.35495278  1
  Ni  Ni24  1  0.15455154  0.47388560  0.57629782  1
  Ni  Ni25  1  0.31901497  0.30541092  0.74253350  1
  Ni  Ni26  1  0.26411974  0.46921489  0.35813329  1
  Ni  Ni27  1  0.59558260  0.80497444  0.68713313  1
  Ni  Ni28  1  0.87400270  0.30325353  0.62925702  1
  Ni  Ni29  1  0.42814040  0.97207040  0.52116543  1
  Ni  Ni30  1  0.37434787  0.14018089  0.12638196  1
  Ni  Ni31  1  0.70149171  0.80609798  0.46681336  1
  Ni  Ni32  1  0.15220429  0.80517757  0.57556289  1
  Ni  Ni33  1  0.54238439  0.30298272  0.29995972  1
  Ni  Ni34  1  0.48421481  0.80566114  0.90689254  1
  Ni  Ni35  1  0.70573312  0.47206905  0.46702573  1
  Ni  Ni36  1  0.59557784  0.13800716  0.68493605  1
  Ni  Ni37  1  0.43118122  0.30419090  0.51980305  1
  Ni  Ni38  1  0.87218869  0.97280318  0.62970245  1
  Ni  Ni39  1  0.81710887  0.13737775  0.24012350  1
  Ni  Ni40  1  0.37763801  0.46990043  0.12869088  1
  Ni  Ni41  1  0.21643448  0.64286017  0.96237075  1
  Ni  Ni42  1  0.48684257  0.47157103  0.90960449  1
  Ni  Ni43  1  0.48736778  0.14025976  0.90602899  1
  Ni  Ni44  1  0.32467034  0.97177118  0.74231958  1
  Ni  Ni45  1  0.93144089  0.13691968  0.01943967  1
  Ni  Ni46  1  0.70435315  0.14102031  0.46369201  1
  Ni  Ni47  1  0.32348531  0.63720882  0.74213457  1
  Ni  Ni48  1  0.64889479  0.63702995  0.07298533  1
  Ni  Ni49  1  0.76338303  0.30611700  0.85239208  1
  Ni  Ni50  1  0.10033874  0.97586489  0.18419039  1
  Ni  Ni51  1  0.26587471  0.13836432  0.35025805  1
  Ni  Ni52  1  0.75772405  0.97733563  0.84986442  1
  Ni  Ni53  1  0.65306306  0.97076452  0.07270295  1
