# generated using pymatgen
data_Zn
_symmetry_space_group_name_H-M   'P 1'
_cell_length_a   7.63664675
_cell_length_b   7.63664675
_cell_length_c   10.79984951
_cell_angle_alpha   90.00000000
_cell_angle_beta   90.00000000
_cell_angle_gamma   90.00000000
_symmetry_Int_Tables_number   1
_chemical_formula_structural   Zn
_chemical_formula_sum   Zn54
_cell_volume   629.82965799
_cell_formula_units_Z   54
loop_
 _symmetry_equiv_pos_site_id
 _symmetry_equiv_pos_as_xyz
  1  'x, y, z'
loop_
 _atom_site_type_symbol
 _atom_site_label
 _atom_site_symmetry_multiplicity
 _atom_site_fract_x
 _atom_site_fract_y
 _atom_site_fract_z
 _atom_site_occupancy
  Zn  Zn0  1  0.98883313  0.99053997  0.98657233  1
  Zn  Zn1  1  0.15235090  0.17121959  0.15937357  1
  Zn  Zn2  1  0.98777825  0.32410210  0.32915494  1
  Zn  Zn3  1  0.64963943  0.97612172  0.98988080  1
  Zn  Zn4  1  0.65922546  0.31907761  0.99028623  1
  Zn  Zn5  1  0.32885543  0.66306847  0.98797458  1
  Zn  Zn6  1  0.48203623  0.48518038  0.15389255  1
  Zn  Zn7  1  0.82998157  0.48167729  0.15236738  1
  Zn  Zn8  1  0.15533487  0.15764651  0.48297611  1
  Zn  Zn9  1  0.99524158  0.99547321  0.66025275  1
  Zn  Zn10  1  0.32565209  0.98398763  0.65869915  1
  Zn  Zn11  1  0.31561297  0.32211378  0.66036844  1
  Zn  Zn12  1  0.15711100  0.49033001  0.48949632  1
  Zn  Zn13  1  0.49414602  0.49649456  0.82141840  1
  Zn  Zn14  1  0.81117415  0.81474644  0.82202876  1
  Zn  Zn15  1  0.98430949  0.98756105  0.32221660  1
  Zn  Zn16  1  0.31732377  0.99341941  0.98570871  1
  Zn  Zn17  1  0.32315677  0.98923486  0.32036629  1
  Zn  Zn18  1  0.31720641  0.32602417  0.98215836  1
  Zn  Zn19  1  0.49108174  0.15295939  0.15367548  1
  Zn  Zn20  1  0.65789276  0.98811466  0.32186940  1
  Zn  Zn21  1  0.65852338  0.32091987  0.32234594  1
  Zn  Zn22  1  0.98944241  0.65643466  0.98862606  1
  Zn  Zn23  1  0.15480417  0.82313508  0.15552790  1
  Zn  Zn24  1  0.98697788  0.65512329  0.32297373  1
  Zn  Zn25  1  0.32186687  0.65221393  0.31983939  1
  Zn  Zn26  1  0.65707582  0.65457344  0.32119486  1
  Zn  Zn27  1  0.48821968  0.15578164  0.48902684  1
  Zn  Zn28  1  0.65982097  0.98546684  0.65358388  1
  Zn  Zn29  1  0.65874124  0.32283765  0.65446460  1
  Zn  Zn30  1  0.15471891  0.82215655  0.48976442  1
  Zn  Zn31  1  0.98971486  0.65540594  0.65574372  1
  Zn  Zn32  1  0.48792174  0.48825160  0.49136499  1
  Zn  Zn33  1  0.48899251  0.81963098  0.48983043  1
  Zn  Zn34  1  0.49067628  0.15438035  0.82111937  1
  Zn  Zn35  1  0.82329082  0.15601683  0.82257074  1
  Zn  Zn36  1  0.82642204  0.48576966  0.82351065  1
  Zn  Zn37  1  0.99308133  0.32409841  0.98692191  1
  Zn  Zn38  1  0.32848036  0.32195595  0.32072270  1
  Zn  Zn39  1  0.82178599  0.14935657  0.15407759  1
  Zn  Zn40  1  0.15647483  0.49393022  0.15479311  1
  Zn  Zn41  1  0.48885557  0.82234126  0.15896304  1
  Zn  Zn42  1  0.65813255  0.65404809  0.99265635  1
  Zn  Zn43  1  0.82189953  0.81993181  0.15680370  1
  Zn  Zn44  1  0.98449641  0.32553217  0.65572405  1
  Zn  Zn45  1  0.81903410  0.15476748  0.49055743  1
  Zn  Zn46  1  0.32316515  0.65572131  0.65839607  1
  Zn  Zn47  1  0.81897712  0.49091947  0.49116898  1
  Zn  Zn48  1  0.82176638  0.82119107  0.48892117  1
  Zn  Zn49  1  0.65626669  0.65585655  0.65228128  1
  Zn  Zn50  1  0.15319388  0.15924440  0.82315671  1
  Zn  Zn51  1  0.15230504  0.49223807  0.82164735  1
  Zn  Zn52  1  0.15486132  0.81903881  0.82222474  1
  Zn  Zn53  1  0.48643851  0.82300562  0.81912762  1
