# generated using pymatgen
data_Zn
_symmetry_space_group_name_H-M   'P 1'
_cell_length_a   7.63291502
_cell_length_b   7.63291502
_cell_length_c   10.79457188
_cell_angle_alpha   90.00000000
_cell_angle_beta   90.00000000
_cell_angle_gamma   90.00000000
_symmetry_Int_Tables_number   1
_chemical_formula_structural   Zn
_chemical_formula_sum   Zn54
_cell_volume   628.90678036
_cell_formula_units_Z   54
loop_
 _symmetry_equiv_pos_site_id
 _symmetry_equiv_pos_as_xyz
  1  'x, y, z'
loop_
 _atom_site_type_symbol
 _atom_site_label
 _atom_site_symmetry_multiplicity
 _atom_site_fract_x
 _atom_site_fract_y
 _atom_site_fract_z
 _atom_site_occupancy
  Zn  Zn0  1  0.98942208  0.99364561  0.99054343  1
  Zn  Zn1  1  0.98966080  0.99492389  0.32205039  1
  Zn  Zn2  1  0.99423283  0.32418230  0.32101598  1
  Zn  Zn3  1  0.32118410  0.99078053  0.32648966  1
  Zn  Zn4  1  0.32098404  0.32155767  0.98701948  1
  Zn  Zn5  1  0.31633505  0.32231918  0.32195953  1
  Zn  Zn6  1  0.48818293  0.15210137  0.15735501  1
  Zn  Zn7  1  0.65378106  0.98955375  0.98692101  1
  Zn  Zn8  1  0.66089541  0.32286394  0.99096346  1
  Zn  Zn9  1  0.65921813  0.32035780  0.32104224  1
  Zn  Zn10  1  0.98819435  0.65138572  0.99102688  1
  Zn  Zn11  1  0.16039835  0.82323867  0.15348449  1
  Zn  Zn12  1  0.99158794  0.65194523  0.32067439  1
  Zn  Zn13  1  0.31885004  0.65175390  0.32561499  1
  Zn  Zn14  1  0.48642215  0.49079522  0.15490471  1
  Zn  Zn15  1  0.48835510  0.82275331  0.15591864  1
  Zn  Zn16  1  0.65520656  0.65499049  0.99004477  1
  Zn  Zn17  1  0.82081997  0.82470244  0.15688124  1
  Zn  Zn18  1  0.65724134  0.65554184  0.32031676  1
  Zn  Zn19  1  0.99010104  0.99154550  0.65433854  1
  Zn  Zn20  1  0.32200536  0.99070698  0.65328962  1
  Zn  Zn21  1  0.32099095  0.32229421  0.65783155  1
  Zn  Zn22  1  0.49167106  0.15295856  0.48766875  1
  Zn  Zn23  1  0.65251011  0.98703671  0.65964884  1
  Zn  Zn24  1  0.65694392  0.32305467  0.65573943  1
  Zn  Zn25  1  0.15880109  0.82105309  0.48906708  1
  Zn  Zn26  1  0.98846924  0.65323466  0.65552282  1
  Zn  Zn27  1  0.32533252  0.65932429  0.65278041  1
  Zn  Zn28  1  0.48803341  0.49254218  0.48945329  1
  Zn  Zn29  1  0.82148981  0.48820513  0.49268964  1
  Zn  Zn30  1  0.82017624  0.82416052  0.48889026  1
  Zn  Zn31  1  0.15746669  0.16002955  0.82274979  1
  Zn  Zn32  1  0.82301176  0.15547833  0.82241213  1
  Zn  Zn33  1  0.15681669  0.82039446  0.82411844  1
  Zn  Zn34  1  0.48527858  0.48931035  0.82266974  1
  Zn  Zn35  1  0.82479131  0.48759842  0.81876510  1
  Zn  Zn36  1  0.82241535  0.82006735  0.82220399  1
  Zn  Zn37  1  0.15533420  0.15745968  0.15002078  1
  Zn  Zn38  1  0.98775363  0.32348073  0.99196285  1
  Zn  Zn39  1  0.32337722  0.98803282  0.98726767  1
  Zn  Zn40  1  0.82438076  0.15719157  0.15514092  1
  Zn  Zn41  1  0.65963775  0.99217725  0.32385764  1
  Zn  Zn42  1  0.15550567  0.48697156  0.15078975  1
  Zn  Zn43  1  0.32167810  0.65626258  0.98692888  1
  Zn  Zn44  1  0.82496142  0.48638511  0.15572059  1
  Zn  Zn45  1  0.14981930  0.16085097  0.49252439  1
  Zn  Zn46  1  0.99292177  0.31997299  0.65525544  1
  Zn  Zn47  1  0.82409406  0.15724337  0.49018717  1
  Zn  Zn48  1  0.15126967  0.48292029  0.49321899  1
  Zn  Zn49  1  0.49793243  0.82183152  0.48651090  1
  Zn  Zn50  1  0.65056670  0.66110778  0.65694642  1
  Zn  Zn51  1  0.49008656  0.15006582  0.82368028  1
  Zn  Zn52  1  0.14911337  0.49008539  0.82419389  1
  Zn  Zn53  1  0.48756510  0.82284802  0.82500213  1
