268,FeCr80_13,-61.5678476953769, 204.714703091678,FeCr80,"# generated using pymatgen
 data_Cr3Fe
_symmetry_space_group_name_H-M   'P 1'
_cell_length_a   4.97803174
_cell_length_b   4.97803174
_cell_length_c   7.04000000
_cell_angle_alpha   90.00000000
_cell_angle_beta   90.00000000
_cell_angle_gamma   90.00000000
_symmetry_Int_Tables_number   1
_chemical_formula_structural   Cr3Fe
_chemical_formula_sum   'Cr12 Fe4'
_cell_volume   174.45683200
_cell_formula_units_Z   4
loop_
 _symmetry_equiv_pos_site_id
 _symmetry_equiv_pos_as_xyz
  1  'x, y, z'
loop_
 _atom_site_type_symbol
 _atom_site_label
 _atom_site_symmetry_multiplicity
 _atom_site_fract_x
 _atom_site_fract_y
 _atom_site_fract_z
 _atom_site_occupancy
  Cr  Cr0  1  0.00089923  0.00076194  0.99974589  1
  Cr  Cr1  1  0.25296203  0.25201742  0.24903884  1
  Cr  Cr2  1  0.00154437  0.00133774  0.50035351  1
  Fe  Fe3  1  0.25029843  0.25149261  0.75163323  1
  Cr  Cr4  1  0.00147721  0.49843402  0.99967192  1
  Cr  Cr5  1  0.25138649  0.74895983  0.24935400  1
  Cr  Cr6  1  0.00153618  0.49828962  0.50049745  1
  Fe  Fe7  1  0.25020820  0.74883633  0.75138042  1
  Cr  Cr8  1  0.49860930  0.00212535  0.99938206  1
  Fe  Fe9  1  0.75011448  0.24991932  0.24887629  1
  Cr  Cr10  1  0.49820786  0.00140454  0.50078732  1
  Cr  Cr11  1  0.74845422  0.25130160  0.75047600  1
  Fe  Fe12  1  0.49938117  0.50027066  0.99800287  1
  Cr  Cr13  1  0.74815900  0.74750834  0.24975240  1
  Cr  Cr14  1  0.49834870  0.49835515  0.50092936  1
  Cr  Cr15  1  0.74841313  0.74898553  0.75011844  1
" 