460,FeCr20_3,-65.5339588889982, 129.995709056442,FeCr20,"# generated using pymatgen
 data_Cr3Fe13
_symmetry_space_group_name_H-M   'P 1'
_cell_length_a   4.97803174
_cell_length_b   4.97803174
_cell_length_c   7.04000000
_cell_angle_alpha   90.00000000
_cell_angle_beta   90.00000000
_cell_angle_gamma   90.00000000
_symmetry_Int_Tables_number   1
_chemical_formula_structural   Cr3Fe13
_chemical_formula_sum   'Cr3 Fe13'
_cell_volume   174.45683200
_cell_formula_units_Z   1
loop_
 _symmetry_equiv_pos_site_id
 _symmetry_equiv_pos_as_xyz
  1  'x, y, z'
loop_
 _atom_site_type_symbol
 _atom_site_label
 _atom_site_symmetry_multiplicity
 _atom_site_fract_x
 _atom_site_fract_y
 _atom_site_fract_z
 _atom_site_occupancy
  Fe  Fe0  1  0.99867642  0.00000000  0.00324668  1
  Fe  Fe1  1  0.25027546  0.24923589  0.25129073  1
  Fe  Fe2  1  0.99876138  0.00000000  0.49696730  1
  Cr  Cr3  1  0.25241495  0.24841062  0.74958932  1
  Cr  Cr4  1  0.99437938  0.50000000  0.00065033  1
  Fe  Fe5  1  0.25027546  0.75076411  0.25129073  1
  Fe  Fe6  1  0.99877949  0.50000000  0.49749054  1
  Cr  Cr7  1  0.25241495  0.75158938  0.74958932  1
  Fe  Fe8  1  0.50380521  0.00000000  0.00344575  1
  Fe  Fe9  1  0.74859997  0.24901793  0.25192000  1
  Fe  Fe10  1  0.50222481  0.00000000  0.49662620  1
  Fe  Fe11  1  0.74990050  0.24828164  0.74769295  1
  Fe  Fe12  1  0.49879654  0.50000000  0.00353342  1
  Fe  Fe13  1  0.74859997  0.75098207  0.25192000  1
  Fe  Fe14  1  0.50219501  0.50000000  0.49705376  1
  Fe  Fe15  1  0.74990050  0.75171836  0.74769295  1
" 