81,FeCr30_10,-65.2417874588745, 141.595002272554,FeCr30,"# generated using pymatgen
 data_CrFe3
_symmetry_space_group_name_H-M   'P 1'
_cell_length_a   4.97803174
_cell_length_b   4.97803174
_cell_length_c   7.04000000
_cell_angle_alpha   90.00000000
_cell_angle_beta   90.00000000
_cell_angle_gamma   90.00000000
_symmetry_Int_Tables_number   1
_chemical_formula_structural   CrFe3
_chemical_formula_sum   'Cr4 Fe12'
_cell_volume   174.45683200
_cell_formula_units_Z   4
loop_
 _symmetry_equiv_pos_site_id
 _symmetry_equiv_pos_as_xyz
  1  'x, y, z'
loop_
 _atom_site_type_symbol
 _atom_site_label
 _atom_site_symmetry_multiplicity
 _atom_site_fract_x
 _atom_site_fract_y
 _atom_site_fract_z
 _atom_site_occupancy
  Fe  Fe0  1  0.00111652  0.00086862  0.99778482  1
  Cr  Cr1  1  0.25248614  0.24751386  0.25039922  1
  Fe  Fe2  1  0.99939243  0.00036342  0.50188588  1
  Fe  Fe3  1  0.25071196  0.24928804  0.74891190  1
  Cr  Cr4  1  0.99664124  0.50335876  0.99979939  1
  Fe  Fe5  1  0.25138095  0.74989297  0.25155243  1
  Cr  Cr6  1  0.99801165  0.50198835  0.50012979  1
  Fe  Fe7  1  0.25076094  0.75124695  0.74846884  1
  Cr  Cr8  1  0.50352874  0.99647126  0.99919577  1
  Fe  Fe9  1  0.75010703  0.24861905  0.25155243  1
  Fe  Fe10  1  0.50149139  0.99850861  0.50199367  1
  Fe  Fe11  1  0.74875305  0.24923906  0.74846884  1
  Fe  Fe12  1  0.49913138  0.49888348  0.99778482  1
  Fe  Fe13  1  0.74811138  0.75188862  0.25219883  1
  Fe  Fe14  1  0.49963658  0.50060757  0.50188588  1
  Fe  Fe15  1  0.74873863  0.75126137  0.74798747  1
" 