347,FeCr60_7,-63.3661220872822, 193.093427405578,FeCr60,"# generated using pymatgen
 data_Cr9Fe7
_symmetry_space_group_name_H-M   'P 1'
_cell_length_a   4.97803174
_cell_length_b   4.97803174
_cell_length_c   7.04000000
_cell_angle_alpha   90.00000000
_cell_angle_beta   90.00000000
_cell_angle_gamma   90.00000000
_symmetry_Int_Tables_number   1
_chemical_formula_structural   Cr9Fe7
_chemical_formula_sum   'Cr9 Fe7'
_cell_volume   174.45683200
_cell_formula_units_Z   1
loop_
 _symmetry_equiv_pos_site_id
 _symmetry_equiv_pos_as_xyz
  1  'x, y, z'
loop_
 _atom_site_type_symbol
 _atom_site_label
 _atom_site_symmetry_multiplicity
 _atom_site_fract_x
 _atom_site_fract_y
 _atom_site_fract_z
 _atom_site_occupancy
  Cr  Cr0  1  0.99873583  0.00163837  0.00031093  1
  Cr  Cr1  1  0.25015226  0.25510991  0.24975085  1
  Fe  Fe2  1  0.00086852  0.99896246  0.49872292  1
  Cr  Cr3  1  0.25015324  0.25403991  0.75020802  1
  Fe  Fe4  1  0.99858423  0.49960164  0.00143286  1
  Fe  Fe5  1  0.24988385  0.75120095  0.25036028  1
  Cr  Cr6  1  0.99694086  0.49648364  0.49932838  1
  Cr  Cr7  1  0.24995880  0.74810902  0.74997033  1
  Cr  Cr8  1  0.50131386  0.00169663  0.00025362  1
  Fe  Fe9  1  0.74998007  0.24981792  0.24972590  1
  Cr  Cr10  1  0.50303541  0.00286025  0.49982772  1
  Fe  Fe11  1  0.75010914  0.24985218  0.75023959  1
  Fe  Fe12  1  0.50138809  0.49967895  0.00141015  1
  Cr  Cr13  1  0.74979778  0.74571341  0.25011148  1
  Fe  Fe14  1  0.49921750  0.50047893  0.49846514  1
  Cr  Cr15  1  0.74988055  0.74475582  0.74988184  1
" 