326,FeCr40_12,-64.7535705005488, 154.569042904726,FeCr40,"# generated using pymatgen
 data_Cr3Fe5
_symmetry_space_group_name_H-M   'P 1'
_cell_length_a   4.97803174
_cell_length_b   4.97803174
_cell_length_c   7.04000000
_cell_angle_alpha   90.00000000
_cell_angle_beta   90.00000000
_cell_angle_gamma   90.00000000
_symmetry_Int_Tables_number   1
_chemical_formula_structural   Cr3Fe5
_chemical_formula_sum   'Cr6 Fe10'
_cell_volume   174.45683200
_cell_formula_units_Z   2
loop_
 _symmetry_equiv_pos_site_id
 _symmetry_equiv_pos_as_xyz
  1  'x, y, z'
loop_
 _atom_site_type_symbol
 _atom_site_label
 _atom_site_symmetry_multiplicity
 _atom_site_fract_x
 _atom_site_fract_y
 _atom_site_fract_z
 _atom_site_occupancy
  Fe  Fe0  1  0.99740187  0.00013862  0.99674947  1
  Cr  Cr1  1  0.24853172  0.25000000  0.24880062  1
  Fe  Fe2  1  0.99930459  0.00078981  0.50342266  1
  Fe  Fe3  1  0.24972408  0.25000000  0.75294602  1
  Fe  Fe4  1  0.99740187  0.49986138  0.99674947  1
  Cr  Cr5  1  0.24365758  0.75000000  0.24920553  1
  Fe  Fe6  1  0.99930459  0.49921019  0.50342266  1
  Cr  Cr7  1  0.24679595  0.75000000  0.75028692  1
  Fe  Fe8  1  0.50095773  0.00010024  0.99772547  1
  Cr  Cr9  1  0.75490973  0.25000000  0.24829296  1
  Cr  Cr10  1  0.50469156  0.00004085  0.50091509  1
  Fe  Fe11  1  0.75301475  0.25000000  0.75349434  1
  Fe  Fe12  1  0.50095773  0.49989976  0.99772547  1
  Fe  Fe13  1  0.74863753  0.75000000  0.24556486  1
  Cr  Cr14  1  0.50469156  0.49995915  0.50091509  1
  Fe  Fe15  1  0.75001718  0.75000000  0.75378339  1
" 