156,FeCr30_8,-65.2766959456118, 150.636425390555,FeCr30,"# generated using pymatgen
 data_CrFe3
_symmetry_space_group_name_H-M   'P 1'
_cell_length_a   4.97803174
_cell_length_b   4.97803174
_cell_length_c   7.04000000
_cell_angle_alpha   90.00000000
_cell_angle_beta   90.00000000
_cell_angle_gamma   90.00000000
_symmetry_Int_Tables_number   1
_chemical_formula_structural   CrFe3
_chemical_formula_sum   'Cr4 Fe12'
_cell_volume   174.45683200
_cell_formula_units_Z   4
loop_
 _symmetry_equiv_pos_site_id
 _symmetry_equiv_pos_as_xyz
  1  'x, y, z'
loop_
 _atom_site_type_symbol
 _atom_site_label
 _atom_site_symmetry_multiplicity
 _atom_site_fract_x
 _atom_site_fract_y
 _atom_site_fract_z
 _atom_site_occupancy
  Cr  Cr0  1  0.99743702  0.99743702  0.99958630  1
  Fe  Fe1  1  0.24874992  0.24874992  0.25187854  1
  Fe  Fe2  1  0.99908868  0.99908868  0.50112489  1
  Cr  Cr3  1  0.25201546  0.25201546  0.74977439  1
  Fe  Fe4  1  0.99886859  0.49997841  0.99843761  1
  Cr  Cr5  1  0.25306922  0.74632324  0.25051530  1
  Fe  Fe6  1  0.99886858  0.50135589  0.50155792  1
  Fe  Fe7  1  0.25063973  0.75036071  0.74817506  1
  Fe  Fe8  1  0.49997841  0.99886859  0.99843761  1
  Cr  Cr9  1  0.74632324  0.25306922  0.25051530  1
  Fe  Fe10  1  0.50135589  0.99886858  0.50155792  1
  Fe  Fe11  1  0.75036071  0.25063973  0.74817506  1
  Fe  Fe12  1  0.50247986  0.50247986  0.99777690  1
  Fe  Fe13  1  0.75061132  0.75061132  0.25244180  1
  Fe  Fe14  1  0.50156773  0.50156773  0.50202599  1
  Fe  Fe15  1  0.74858564  0.74858564  0.74801943  1
" 