303,FeCr20_2,-65.4624642325165, 138.04720667267,FeCr20,"# generated using pymatgen
 data_Cr3Fe13
_symmetry_space_group_name_H-M   'P 1'
_cell_length_a   4.97803174
_cell_length_b   4.97803174
_cell_length_c   7.04000000
_cell_angle_alpha   90.00000000
_cell_angle_beta   90.00000000
_cell_angle_gamma   90.00000000
_symmetry_Int_Tables_number   1
_chemical_formula_structural   Cr3Fe13
_chemical_formula_sum   'Cr3 Fe13'
_cell_volume   174.45683200
_cell_formula_units_Z   1
loop_
 _symmetry_equiv_pos_site_id
 _symmetry_equiv_pos_as_xyz
  1  'x, y, z'
loop_
 _atom_site_type_symbol
 _atom_site_label
 _atom_site_symmetry_multiplicity
 _atom_site_fract_x
 _atom_site_fract_y
 _atom_site_fract_z
 _atom_site_occupancy
  Fe  Fe0  1  0.00050318  0.99925999  0.00164470  1
  Fe  Fe1  1  0.25285127  0.25000000  0.25000000  1
  Cr  Cr2  1  0.00211339  0.00271081  0.49971228  1
  Fe  Fe3  1  0.25427354  0.25000000  0.75000000  1
  Cr  Cr4  1  0.00211339  0.49728919  0.00028772  1
  Fe  Fe5  1  0.25256572  0.75000000  0.25000000  1
  Fe  Fe6  1  0.00050318  0.50074001  0.49835530  1
  Fe  Fe7  1  0.24959165  0.75000000  0.75000000  1
  Fe  Fe8  1  0.49810093  0.00148263  0.00199127  1
  Fe  Fe9  1  0.74807143  0.25000000  0.25000000  1
  Fe  Fe10  1  0.50005453  0.00109756  0.49786254  1
  Fe  Fe11  1  0.74795990  0.25000000  0.75000000  1
  Fe  Fe12  1  0.50005453  0.49890244  0.00213746  1
  Fe  Fe13  1  0.74840904  0.75000000  0.25000000  1
  Fe  Fe14  1  0.49810093  0.49851737  0.49800873  1
  Cr  Cr15  1  0.74473338  0.75000000  0.75000000  1
" 