387,FeCr50_10,-63.9858769361712, 184.166775049551,FeCr50,"# generated using pymatgen
 data_CrFe
_symmetry_space_group_name_H-M   'P 1'
_cell_length_a   4.97803174
_cell_length_b   4.97803174
_cell_length_c   7.04000000
_cell_angle_alpha   90.00000000
_cell_angle_beta   90.00000000
_cell_angle_gamma   90.00000000
_symmetry_Int_Tables_number   1
_chemical_formula_structural   CrFe
_chemical_formula_sum   'Cr8 Fe8'
_cell_volume   174.45683200
_cell_formula_units_Z   8
loop_
 _symmetry_equiv_pos_site_id
 _symmetry_equiv_pos_as_xyz
  1  'x, y, z'
loop_
 _atom_site_type_symbol
 _atom_site_label
 _atom_site_symmetry_multiplicity
 _atom_site_fract_x
 _atom_site_fract_y
 _atom_site_fract_z
 _atom_site_occupancy
  Cr  Cr0  1  0.00356281  0.99131586  0.00049319  1
  Cr  Cr1  1  0.24872532  0.25111945  0.25022297  1
  Fe  Fe2  1  0.99998972  0.99760387  0.49871476  1
  Cr  Cr3  1  0.24807432  0.25222459  0.74961363  1
  Fe  Fe4  1  0.99929972  0.49926518  0.00158012  1
  Fe  Fe5  1  0.24809071  0.74896396  0.25266855  1
  Fe  Fe6  1  0.00163598  0.50438215  0.49831550  1
  Fe  Fe7  1  0.24938431  0.74929101  0.74733291  1
  Fe  Fe8  1  0.50101143  0.00183204  0.00093101  1
  Cr  Cr9  1  0.75113058  0.25135832  0.25006903  1
  Cr  Cr10  1  0.49821663  0.99474007  0.49977613  1
  Cr  Cr11  1  0.75120269  0.25102465  0.74974700  1
  Cr  Cr12  1  0.49665857  0.50961260  0.00078659  1
  Fe  Fe13  1  0.75144950  0.74933185  0.25209094  1
  Fe  Fe14  1  0.49931963  0.50013260  0.49856895  1
  Cr  Cr15  1  0.75224808  0.74780179  0.74908872  1
" 