168,FeCr50_4,-64.0078075329911, 185.451358824391,FeCr50,"# generated using pymatgen
 data_CrFe
_symmetry_space_group_name_H-M   'P 1'
_cell_length_a   4.97803174
_cell_length_b   4.97803174
_cell_length_c   7.04000000
_cell_angle_alpha   90.00000000
_cell_angle_beta   90.00000000
_cell_angle_gamma   90.00000000
_symmetry_Int_Tables_number   1
_chemical_formula_structural   CrFe
_chemical_formula_sum   'Cr8 Fe8'
_cell_volume   174.45683200
_cell_formula_units_Z   8
loop_
 _symmetry_equiv_pos_site_id
 _symmetry_equiv_pos_as_xyz
  1  'x, y, z'
loop_
 _atom_site_type_symbol
 _atom_site_label
 _atom_site_symmetry_multiplicity
 _atom_site_fract_x
 _atom_site_fract_y
 _atom_site_fract_z
 _atom_site_occupancy
  Cr  Cr0  1  0.00380302  0.00380302  0.00000000  1
  Fe  Fe1  1  0.25000000  0.25000000  0.24690015  1
  Cr  Cr2  1  0.00337439  0.00337439  0.50000000  1
  Fe  Fe3  1  0.25000000  0.25000000  0.75309985  1
  Fe  Fe4  1  0.99963155  0.50036845  0.00000000  1
  Fe  Fe5  1  0.25000000  0.75000000  0.24752008  1
  Cr  Cr6  1  0.00316752  0.49683248  0.50000000  1
  Fe  Fe7  1  0.25000000  0.75000000  0.75247992  1
  Fe  Fe8  1  0.50036845  0.99963155  0.00000000  1
  Fe  Fe9  1  0.75000000  0.25000000  0.24752008  1
  Cr  Cr10  1  0.49683248  0.00316752  0.50000000  1
  Fe  Fe11  1  0.75000000  0.25000000  0.75247992  1
  Cr  Cr12  1  0.49619698  0.49619698  0.00000000  1
  Cr  Cr13  1  0.75000000  0.75000000  0.25005148  1
  Cr  Cr14  1  0.49662561  0.49662561  0.50000000  1
  Cr  Cr15  1  0.75000000  0.75000000  0.74994852  1
" 