291,FeCr50_8,-63.8227366067236, 186.452114682722,FeCr50,"# generated using pymatgen
 data_CrFe
_symmetry_space_group_name_H-M   'P 1'
_cell_length_a   4.97803174
_cell_length_b   4.97803174
_cell_length_c   7.04000000
_cell_angle_alpha   90.00000000
_cell_angle_beta   90.00000000
_cell_angle_gamma   90.00000000
_symmetry_Int_Tables_number   1
_chemical_formula_structural   CrFe
_chemical_formula_sum   'Cr8 Fe8'
_cell_volume   174.45683200
_cell_formula_units_Z   8
loop_
 _symmetry_equiv_pos_site_id
 _symmetry_equiv_pos_as_xyz
  1  'x, y, z'
loop_
 _atom_site_type_symbol
 _atom_site_label
 _atom_site_symmetry_multiplicity
 _atom_site_fract_x
 _atom_site_fract_y
 _atom_site_fract_z
 _atom_site_occupancy
  Cr  Cr0  1  0.00000000  0.99586837  0.00000000  1
  Cr  Cr1  1  0.25000000  0.25389367  0.25000000  1
  Cr  Cr2  1  0.00000000  0.99828919  0.50000000  1
  Fe  Fe3  1  0.25000000  0.25151987  0.75000000  1
  Fe  Fe4  1  1.00000000  0.50050346  0.00000000  1
  Fe  Fe5  1  0.25000000  0.74966020  0.25000000  1
  Cr  Cr6  1  0.00000000  0.50368680  0.50000000  1
  Fe  Fe7  1  0.25000000  0.74657844  0.75000000  1
  Cr  Cr8  1  0.50000000  0.99828919  0.00000000  1
  Fe  Fe9  1  0.75000000  0.25151987  0.25000000  1
  Cr  Cr10  1  0.50000000  0.99586837  0.50000000  1
  Cr  Cr11  1  0.75000000  0.25389367  0.75000000  1
  Cr  Cr12  1  0.50000000  0.50368680  0.00000000  1
  Fe  Fe13  1  0.75000000  0.74657844  0.25000000  1
  Fe  Fe14  1  0.50000000  0.50050346  0.50000000  1
  Fe  Fe15  1  0.75000000  0.74966020  0.75000000  1
" 