45,FeCr40_13,-64.488522196951, 164.254881518584,FeCr40,"# generated using pymatgen
 data_Cr3Fe5
_symmetry_space_group_name_H-M   'P 1'
_cell_length_a   4.97803174
_cell_length_b   4.97803174
_cell_length_c   7.04000000
_cell_angle_alpha   90.00000000
_cell_angle_beta   90.00000000
_cell_angle_gamma   90.00000000
_symmetry_Int_Tables_number   1
_chemical_formula_structural   Cr3Fe5
_chemical_formula_sum   'Cr6 Fe10'
_cell_volume   174.45683200
_cell_formula_units_Z   2
loop_
 _symmetry_equiv_pos_site_id
 _symmetry_equiv_pos_as_xyz
  1  'x, y, z'
loop_
 _atom_site_type_symbol
 _atom_site_label
 _atom_site_symmetry_multiplicity
 _atom_site_fract_x
 _atom_site_fract_y
 _atom_site_fract_z
 _atom_site_occupancy
  Cr  Cr0  1  0.99547566  0.00004241  0.00007338  1
  Cr  Cr1  1  0.25000000  0.25000000  0.25000000  1
  Fe  Fe2  1  0.99698888  0.99960481  0.49968187  1
  Fe  Fe3  1  0.25000000  0.25000000  0.75000000  1
  Fe  Fe4  1  0.99773310  0.50026655  0.00026340  1
  Cr  Cr5  1  0.25000000  0.75000000  0.25000000  1
  Fe  Fe6  1  0.00032416  0.49989937  0.50000975  1
  Cr  Cr7  1  0.25000000  0.75000000  0.75000000  1
  Fe  Fe8  1  0.49967584  0.00010063  0.99999025  1
  Fe  Fe9  1  0.75000000  0.25000000  0.25000000  1
  Fe  Fe10  1  0.50226690  0.99973345  0.49973660  1
  Cr  Cr11  1  0.75000000  0.25000000  0.75000000  1
  Fe  Fe12  1  0.50301112  0.50039519  0.00031813  1
  Fe  Fe13  1  0.75000000  0.75000000  0.25000000  1
  Cr  Cr14  1  0.50452434  0.49995759  0.49992662  1
  Fe  Fe15  1  0.75000000  0.75000000  0.75000000  1
" 