394,FeCr70_12,-62.155948103783, 207.794508371766,FeCr70,"# generated using pymatgen
 data_Cr11Fe5
_symmetry_space_group_name_H-M   'P 1'
_cell_length_a   4.97803174
_cell_length_b   4.97803174
_cell_length_c   7.04000000
_cell_angle_alpha   90.00000000
_cell_angle_beta   90.00000000
_cell_angle_gamma   90.00000000
_symmetry_Int_Tables_number   1
_chemical_formula_structural   Cr11Fe5
_chemical_formula_sum   'Cr11 Fe5'
_cell_volume   174.45683200
_cell_formula_units_Z   1
loop_
 _symmetry_equiv_pos_site_id
 _symmetry_equiv_pos_as_xyz
  1  'x, y, z'
loop_
 _atom_site_type_symbol
 _atom_site_label
 _atom_site_symmetry_multiplicity
 _atom_site_fract_x
 _atom_site_fract_y
 _atom_site_fract_z
 _atom_site_occupancy
  Cr  Cr0  1  0.99861519  0.00136896  0.00052903  1
  Cr  Cr1  1  0.25000000  0.25000000  0.25000000  1
  Cr  Cr2  1  0.99861519  0.00136896  0.49947097  1
  Fe  Fe3  1  0.25000000  0.25000000  0.75000000  1
  Cr  Cr4  1  0.99861519  0.49863104  0.00052903  1
  Fe  Fe5  1  0.25000000  0.75000000  0.25000000  1
  Cr  Cr6  1  0.99861519  0.49863104  0.49947097  1
  Cr  Cr7  1  0.25000000  0.75000000  0.75000000  1
  Cr  Cr8  1  0.50138481  0.00136896  0.00052903  1
  Fe  Fe9  1  0.75000000  0.25000000  0.25000000  1
  Cr  Cr10  1  0.50138481  0.00136896  0.49947097  1
  Fe  Fe11  1  0.75000000  0.25000000  0.75000000  1
  Cr  Cr12  1  0.50138481  0.49863104  0.00052903  1
  Fe  Fe13  1  0.75000000  0.75000000  0.25000000  1
  Cr  Cr14  1  0.50138481  0.49863104  0.49947097  1
  Cr  Cr15  1  0.75000000  0.75000000  0.75000000  1
" 