333,FeCr30_11,-65.1295392509552, 139.723695099724,FeCr30,"# generated using pymatgen
 data_CrFe3
_symmetry_space_group_name_H-M   'P 1'
_cell_length_a   4.97803174
_cell_length_b   4.97803174
_cell_length_c   7.04000000
_cell_angle_alpha   90.00000000
_cell_angle_beta   90.00000000
_cell_angle_gamma   90.00000000
_symmetry_Int_Tables_number   1
_chemical_formula_structural   CrFe3
_chemical_formula_sum   'Cr4 Fe12'
_cell_volume   174.45683200
_cell_formula_units_Z   4
loop_
 _symmetry_equiv_pos_site_id
 _symmetry_equiv_pos_as_xyz
  1  'x, y, z'
loop_
 _atom_site_type_symbol
 _atom_site_label
 _atom_site_symmetry_multiplicity
 _atom_site_fract_x
 _atom_site_fract_y
 _atom_site_fract_z
 _atom_site_occupancy
  Fe  Fe0  1  0.00136328  0.99940781  0.99849846  1
  Cr  Cr1  1  0.24845187  0.25217505  0.24936239  1
  Fe  Fe2  1  0.99996513  0.99949413  0.50149260  1
  Fe  Fe3  1  0.24862383  0.25097289  0.75172135  1
  Fe  Fe4  1  0.00151558  0.50103596  0.99842992  1
  Fe  Fe5  1  0.24829380  0.74998367  0.24772997  1
  Fe  Fe6  1  0.00229657  0.50166336  0.50159975  1
  Fe  Fe7  1  0.25010758  0.74879902  0.75209594  1
  Fe  Fe8  1  0.49906550  0.99943481  0.99874240  1
  Cr  Cr9  1  0.75130598  0.25236935  0.24955784  1
  Cr  Cr10  1  0.49756800  0.99724858  0.50035668  1
  Fe  Fe11  1  0.75064635  0.24926819  0.75166295  1
  Fe  Fe12  1  0.49887779  0.50100457  0.99862623  1
  Fe  Fe13  1  0.75121006  0.75024146  0.24797121  1
  Fe  Fe14  1  0.49883507  0.49935376  0.50172330  1
  Cr  Cr15  1  0.75187361  0.74754738  0.75042902  1
" 