161,FeCr30_5,-65.2898371342769, 142.929524695562,FeCr30,"# generated using pymatgen
 data_CrFe3
_symmetry_space_group_name_H-M   'P 1'
_cell_length_a   4.97803174
_cell_length_b   4.97803174
_cell_length_c   7.04000000
_cell_angle_alpha   90.00000000
_cell_angle_beta   90.00000000
_cell_angle_gamma   90.00000000
_symmetry_Int_Tables_number   1
_chemical_formula_structural   CrFe3
_chemical_formula_sum   'Cr4 Fe12'
_cell_volume   174.45683200
_cell_formula_units_Z   4
loop_
 _symmetry_equiv_pos_site_id
 _symmetry_equiv_pos_as_xyz
  1  'x, y, z'
loop_
 _atom_site_type_symbol
 _atom_site_label
 _atom_site_symmetry_multiplicity
 _atom_site_fract_x
 _atom_site_fract_y
 _atom_site_fract_z
 _atom_site_occupancy
  Fe  Fe0  1  0.00072564  0.00000000  0.00284862  1
  Fe  Fe1  1  0.25297301  0.25000000  0.25000000  1
  Cr  Cr2  1  0.00431759  0.00000000  0.49927425  1
  Fe  Fe3  1  0.25081033  0.25000000  0.75000000  1
  Cr  Cr4  1  0.00431759  0.50000000  0.00072575  1
  Fe  Fe5  1  0.25297301  0.75000000  0.25000000  1
  Fe  Fe6  1  0.00072564  0.50000000  0.49715138  1
  Fe  Fe7  1  0.25081033  0.75000000  0.75000000  1
  Fe  Fe8  1  0.49633184  0.00000000  0.00338410  1
  Fe  Fe9  1  0.74895258  0.25000000  0.25000000  1
  Fe  Fe10  1  0.50042460  0.00000000  0.49617195  1
  Cr  Cr11  1  0.74546441  0.25000000  0.75000000  1
  Fe  Fe12  1  0.50042460  0.50000000  0.00382805  1
  Fe  Fe13  1  0.74895258  0.75000000  0.25000000  1
  Fe  Fe14  1  0.49633184  0.50000000  0.49661590  1
  Cr  Cr15  1  0.74546441  0.75000000  0.75000000  1
" 