13,FeCr60_0,-63.4308191929426, 189.82656210606,FeCr60,"# generated using pymatgen
 data_Cr9Fe7
_symmetry_space_group_name_H-M   'P 1'
_cell_length_a   4.97803174
_cell_length_b   4.97803174
_cell_length_c   7.04000000
_cell_angle_alpha   90.00000000
_cell_angle_beta   90.00000000
_cell_angle_gamma   90.00000000
_symmetry_Int_Tables_number   1
_chemical_formula_structural   Cr9Fe7
_chemical_formula_sum   'Cr9 Fe7'
_cell_volume   174.45683200
_cell_formula_units_Z   1
loop_
 _symmetry_equiv_pos_site_id
 _symmetry_equiv_pos_as_xyz
  1  'x, y, z'
loop_
 _atom_site_type_symbol
 _atom_site_label
 _atom_site_symmetry_multiplicity
 _atom_site_fract_x
 _atom_site_fract_y
 _atom_site_fract_z
 _atom_site_occupancy
  Fe  Fe0  1  0.99966095  0.00026874  0.99874556  1
  Fe  Fe1  1  0.24875708  0.24957360  0.24625118  1
  Cr  Cr2  1  0.00099197  0.00083291  0.50046240  1
  Fe  Fe3  1  0.24906764  0.24954046  0.75370218  1
  Fe  Fe4  1  0.00134024  0.49834578  0.99852576  1
  Cr  Cr5  1  0.25030061  0.74457611  0.24885693  1
  Cr  Cr6  1  0.00355141  0.49727670  0.50088361  1
  Cr  Cr7  1  0.25083179  0.74554184  0.75082654  1
  Cr  Cr8  1  0.49820964  0.00135913  0.99996298  1
  Cr  Cr9  1  0.74930233  0.25414250  0.24880931  1
  Cr  Cr10  1  0.49750680  0.00335085  0.50028094  1
  Cr  Cr11  1  0.74921229  0.25525104  0.75087514  1
  Fe  Fe12  1  0.49918706  0.49977546  0.99857461  1
  Cr  Cr13  1  0.75043170  0.74818618  0.24919550  1
  Fe  Fe14  1  0.50073558  0.50062825  0.50148762  1
  Fe  Fe15  1  0.75091291  0.75135048  0.75255974  1
" 