438,FeCr70_10,-62.3812032168911, 207.872050162245,FeCr70,"# generated using pymatgen
 data_Cr11Fe5
_symmetry_space_group_name_H-M   'P 1'
_cell_length_a   4.97803174
_cell_length_b   4.97803174
_cell_length_c   7.04000000
_cell_angle_alpha   90.00000000
_cell_angle_beta   90.00000000
_cell_angle_gamma   90.00000000
_symmetry_Int_Tables_number   1
_chemical_formula_structural   Cr11Fe5
_chemical_formula_sum   'Cr11 Fe5'
_cell_volume   174.45683200
_cell_formula_units_Z   1
loop_
 _symmetry_equiv_pos_site_id
 _symmetry_equiv_pos_as_xyz
  1  'x, y, z'
loop_
 _atom_site_type_symbol
 _atom_site_label
 _atom_site_symmetry_multiplicity
 _atom_site_fract_x
 _atom_site_fract_y
 _atom_site_fract_z
 _atom_site_occupancy
  Fe  Fe0  1  0.00120604  0.99879396  0.00000000  1
  Cr  Cr1  1  0.25229651  0.25202968  0.24950993  1
  Cr  Cr2  1  0.99807034  0.00192966  0.50000000  1
  Cr  Cr3  1  0.25229651  0.25202968  0.75049007  1
  Cr  Cr4  1  0.99561319  0.49490251  0.00000000  1
  Cr  Cr5  1  0.25069409  0.74930591  0.25012142  1
  Cr  Cr6  1  0.99450453  0.49578801  0.50000000  1
  Cr  Cr7  1  0.25069409  0.74930591  0.74987858  1
  Cr  Cr8  1  0.50509749  0.00438681  0.00000000  1
  Fe  Fe9  1  0.75002763  0.24997237  0.24824462  1
  Cr  Cr10  1  0.50421199  0.00549547  0.50000000  1
  Fe  Fe11  1  0.75002763  0.24997237  0.75175538  1
  Fe  Fe12  1  0.49958542  0.50041458  0.00000000  1
  Cr  Cr13  1  0.74797032  0.74770349  0.24950993  1
  Fe  Fe14  1  0.49973390  0.50026610  0.50000000  1
  Cr  Cr15  1  0.74797032  0.74770349  0.75049007  1
" 