444,FeCr40_9,-64.630744810817, 158.200114378668,FeCr40,"# generated using pymatgen
 data_Cr3Fe5
_symmetry_space_group_name_H-M   'P 1'
_cell_length_a   4.97803174
_cell_length_b   4.97803174
_cell_length_c   7.04000000
_cell_angle_alpha   90.00000000
_cell_angle_beta   90.00000000
_cell_angle_gamma   90.00000000
_symmetry_Int_Tables_number   1
_chemical_formula_structural   Cr3Fe5
_chemical_formula_sum   'Cr6 Fe10'
_cell_volume   174.45683200
_cell_formula_units_Z   2
loop_
 _symmetry_equiv_pos_site_id
 _symmetry_equiv_pos_as_xyz
  1  'x, y, z'
loop_
 _atom_site_type_symbol
 _atom_site_label
 _atom_site_symmetry_multiplicity
 _atom_site_fract_x
 _atom_site_fract_y
 _atom_site_fract_z
 _atom_site_occupancy
  Cr  Cr0  1  0.00630899  0.00160739  0.00068217  1
  Fe  Fe1  1  0.25178303  0.24806123  0.25177002  1
  Fe  Fe2  1  0.00336690  0.00137822  0.49845442  1
  Fe  Fe3  1  0.25013669  0.24786148  0.74797888  1
  Cr  Cr4  1  0.00661139  0.49864605  0.00036723  1
  Fe  Fe5  1  0.25007321  0.75109826  0.25177644  1
  Fe  Fe6  1  0.99892172  0.49896470  0.49846381  1
  Fe  Fe7  1  0.25005648  0.75174522  0.74815981  1
  Fe  Fe8  1  0.49926899  0.00193144  0.00187546  1
  Fe  Fe9  1  0.74983879  0.25007985  0.25147890  1
  Fe  Fe10  1  0.49632090  0.00010536  0.49837201  1
  Cr  Cr11  1  0.74806191  0.24837680  0.74937459  1
  Fe  Fe12  1  0.49972723  0.49847184  0.00167324  1
  Cr  Cr13  1  0.74828633  0.75196595  0.25018185  1
  Cr  Cr14  1  0.49324872  0.49828262  0.49965730  1
  Cr  Cr15  1  0.74798871  0.75142359  0.74973387  1
" 