89,FeCr60_6,-63.5012482634888, 181.709113873609,FeCr60,"# generated using pymatgen
 data_Cr9Fe7
_symmetry_space_group_name_H-M   'P 1'
_cell_length_a   4.97803174
_cell_length_b   4.97803174
_cell_length_c   7.04000000
_cell_angle_alpha   90.00000000
_cell_angle_beta   90.00000000
_cell_angle_gamma   90.00000000
_symmetry_Int_Tables_number   1
_chemical_formula_structural   Cr9Fe7
_chemical_formula_sum   'Cr9 Fe7'
_cell_volume   174.45683200
_cell_formula_units_Z   1
loop_
 _symmetry_equiv_pos_site_id
 _symmetry_equiv_pos_as_xyz
  1  'x, y, z'
loop_
 _atom_site_type_symbol
 _atom_site_label
 _atom_site_symmetry_multiplicity
 _atom_site_fract_x
 _atom_site_fract_y
 _atom_site_fract_z
 _atom_site_occupancy
  Cr  Cr0  1  0.99981360  0.99978265  0.99843093  1
  Fe  Fe1  1  0.24960450  0.25039550  0.25391998  1
  Fe  Fe2  1  0.99955100  0.99973326  0.50313474  1
  Cr  Cr3  1  0.24861934  0.25138066  0.74896207  1
  Cr  Cr4  1  0.99985230  0.50014770  0.99786305  1
  Cr  Cr5  1  0.24785845  0.74711889  0.25205449  1
  Fe  Fe6  1  0.99981106  0.50018894  0.50366106  1
  Fe  Fe7  1  0.24901737  0.74982458  0.74573838  1
  Cr  Cr8  1  0.50026727  0.99973273  0.99904363  1
  Cr  Cr9  1  0.75288111  0.25214155  0.25205449  1
  Cr  Cr10  1  0.49960299  0.00039701  0.50001496  1
  Fe  Fe11  1  0.75017542  0.25098263  0.74573838  1
  Cr  Cr12  1  0.50021735  0.50018640  0.99843093  1
  Cr  Cr13  1  0.75141061  0.74858939  0.25223134  1
  Fe  Fe14  1  0.50026674  0.50044900  0.50313474  1
  Fe  Fe15  1  0.75105089  0.74894911  0.74558682  1
" 