162,FeCr40_4,-64.8792825742074, 155.318738128382,FeCr40,"# generated using pymatgen
 data_Cr3Fe5
_symmetry_space_group_name_H-M   'P 1'
_cell_length_a   4.97803174
_cell_length_b   4.97803174
_cell_length_c   7.04000000
_cell_angle_alpha   90.00000000
_cell_angle_beta   90.00000000
_cell_angle_gamma   90.00000000
_symmetry_Int_Tables_number   1
_chemical_formula_structural   Cr3Fe5
_chemical_formula_sum   'Cr6 Fe10'
_cell_volume   174.45683200
_cell_formula_units_Z   2
loop_
 _symmetry_equiv_pos_site_id
 _symmetry_equiv_pos_as_xyz
  1  'x, y, z'
loop_
 _atom_site_type_symbol
 _atom_site_label
 _atom_site_symmetry_multiplicity
 _atom_site_fract_x
 _atom_site_fract_y
 _atom_site_fract_z
 _atom_site_occupancy
  Cr  Cr0  1  0.00263265  0.00000000  0.99981274  1
  Fe  Fe1  1  0.25000000  0.25352934  0.25000000  1
  Cr  Cr2  1  0.00263265  0.00000000  0.50018726  1
  Fe  Fe3  1  0.25000000  0.25700501  0.75000000  1
  Fe  Fe4  1  0.00243977  0.50000000  0.00430063  1
  Fe  Fe5  1  0.25000000  0.74647066  0.25000000  1
  Fe  Fe6  1  0.00243977  0.50000000  0.49569937  1
  Fe  Fe7  1  0.25000000  0.74299499  0.75000000  1
  Cr  Cr8  1  0.49736735  0.00000000  0.99981274  1
  Fe  Fe9  1  0.75000000  0.25294989  0.25000000  1
  Cr  Cr10  1  0.49736735  0.00000000  0.50018726  1
  Cr  Cr11  1  0.75000000  0.25657768  0.75000000  1
  Fe  Fe12  1  0.49756023  0.50000000  0.00430063  1
  Fe  Fe13  1  0.75000000  0.74705011  0.25000000  1
  Fe  Fe14  1  0.49756023  0.50000000  0.49569937  1
  Cr  Cr15  1  0.75000000  0.74342232  0.75000000  1
" 