117,FeCr50_11,-63.7807260192309, 174.554409471942,FeCr50,"# generated using pymatgen
 data_CrFe
_symmetry_space_group_name_H-M   'P 1'
_cell_length_a   4.97803174
_cell_length_b   4.97803174
_cell_length_c   7.04000000
_cell_angle_alpha   90.00000000
_cell_angle_beta   90.00000000
_cell_angle_gamma   90.00000000
_symmetry_Int_Tables_number   1
_chemical_formula_structural   CrFe
_chemical_formula_sum   'Cr8 Fe8'
_cell_volume   174.45683200
_cell_formula_units_Z   8
loop_
 _symmetry_equiv_pos_site_id
 _symmetry_equiv_pos_as_xyz
  1  'x, y, z'
loop_
 _atom_site_type_symbol
 _atom_site_label
 _atom_site_symmetry_multiplicity
 _atom_site_fract_x
 _atom_site_fract_y
 _atom_site_fract_z
 _atom_site_occupancy
  Fe  Fe0  1  0.00032039  0.00064944  0.00305735  1
  Fe  Fe1  1  0.24799609  0.25200391  0.25000000  1
  Cr  Cr2  1  0.99992922  0.99944495  0.49891060  1
  Cr  Cr3  1  0.24762463  0.25237537  0.75000000  1
  Fe  Fe4  1  0.00098760  0.49924324  0.00416349  1
  Fe  Fe5  1  0.25032487  0.74833072  0.25002647  1
  Fe  Fe6  1  0.00075676  0.49901240  0.49583651  1
  Cr  Cr7  1  0.24364399  0.74568605  0.75014031  1
  Cr  Cr8  1  0.50001041  0.00031000  0.00007360  1
  Fe  Fe9  1  0.75166928  0.24967513  0.24997353  1
  Cr  Cr10  1  0.49969000  0.99998959  0.49992640  1
  Cr  Cr11  1  0.75431395  0.25635601  0.74985969  1
  Cr  Cr12  1  0.50055505  0.50007078  0.00108940  1
  Cr  Cr13  1  0.75346473  0.74653527  0.25000000  1
  Fe  Fe14  1  0.49935056  0.49967961  0.49694265  1
  Fe  Fe15  1  0.74936247  0.75063753  0.75000000  1
" 