57,FeCr60_4,-63.5314287325344, 183.337514067505,FeCr60,"# generated using pymatgen
 data_Cr9Fe7
_symmetry_space_group_name_H-M   'P 1'
_cell_length_a   4.97803174
_cell_length_b   4.97803174
_cell_length_c   7.04000000
_cell_angle_alpha   90.00000000
_cell_angle_beta   90.00000000
_cell_angle_gamma   90.00000000
_symmetry_Int_Tables_number   1
_chemical_formula_structural   Cr9Fe7
_chemical_formula_sum   'Cr9 Fe7'
_cell_volume   174.45683200
_cell_formula_units_Z   1
loop_
 _symmetry_equiv_pos_site_id
 _symmetry_equiv_pos_as_xyz
  1  'x, y, z'
loop_
 _atom_site_type_symbol
 _atom_site_label
 _atom_site_symmetry_multiplicity
 _atom_site_fract_x
 _atom_site_fract_y
 _atom_site_fract_z
 _atom_site_occupancy
  Cr  Cr0  1  0.99781790  0.99736933  0.00234044  1
  Cr  Cr1  1  0.24996692  0.24736323  0.25009063  1
  Fe  Fe2  1  0.99820278  0.99927030  0.49504173  1
  Cr  Cr3  1  0.25007438  0.24639003  0.74984811  1
  Fe  Fe4  1  0.00006130  0.49988275  0.00343225  1
  Fe  Fe5  1  0.25009655  0.74999643  0.25017388  1
  Cr  Cr6  1  0.99861827  0.50159098  0.49910646  1
  Cr  Cr7  1  0.25007921  0.75390045  0.74975843  1
  Fe  Fe8  1  0.50025779  0.99955514  0.00481728  1
  Fe  Fe9  1  0.74978307  0.24888676  0.25005585  1
  Fe  Fe10  1  0.50174741  0.99931893  0.49509459  1
  Cr  Cr11  1  0.75004364  0.24653868  0.75005227  1
  Cr  Cr12  1  0.50236644  0.50209170  0.00072513  1
  Fe  Fe13  1  0.74955269  0.75224567  0.25033270  1
  Cr  Cr14  1  0.50133790  0.50161062  0.49920526  1
  Cr  Cr15  1  0.74999376  0.75398900  0.74992499  1
" 