293,FeCr50_0,-63.7812078614859, 182.736153991667,FeCr50,"# generated using pymatgen
 data_CrFe
_symmetry_space_group_name_H-M   'P 1'
_cell_length_a   4.97803174
_cell_length_b   4.97803174
_cell_length_c   7.04000000
_cell_angle_alpha   90.00000000
_cell_angle_beta   90.00000000
_cell_angle_gamma   90.00000000
_symmetry_Int_Tables_number   1
_chemical_formula_structural   CrFe
_chemical_formula_sum   'Cr8 Fe8'
_cell_volume   174.45683200
_cell_formula_units_Z   8
loop_
 _symmetry_equiv_pos_site_id
 _symmetry_equiv_pos_as_xyz
  1  'x, y, z'
loop_
 _atom_site_type_symbol
 _atom_site_label
 _atom_site_symmetry_multiplicity
 _atom_site_fract_x
 _atom_site_fract_y
 _atom_site_fract_z
 _atom_site_occupancy
  Fe  Fe0  1  0.00000000  0.00000000  1.00000000  1
  Cr  Cr1  1  0.24946929  0.25053071  0.24900777  1
  Cr  Cr2  1  0.00000000  0.00000000  0.50000000  1
  Cr  Cr3  1  0.24946929  0.25053071  0.75099223  1
  Cr  Cr4  1  1.00000000  0.50000000  1.00000000  1
  Fe  Fe5  1  0.25087207  0.75087207  0.24679899  1
  Fe  Fe6  1  0.00000000  0.50000000  0.50000000  1
  Fe  Fe7  1  0.25087207  0.75087207  0.75320101  1
  Fe  Fe8  1  0.50000000  0.00000000  1.00000000  1
  Fe  Fe9  1  0.74912793  0.24912793  0.24679899  1
  Cr  Cr10  1  0.50000000  0.00000000  0.50000000  1
  Fe  Fe11  1  0.74912793  0.24912793  0.75320101  1
  Fe  Fe12  1  0.50000000  0.50000000  1.00000000  1
  Cr  Cr13  1  0.75053071  0.74946929  0.24900777  1
  Cr  Cr14  1  0.50000000  0.50000000  0.50000000  1
  Cr  Cr15  1  0.75053071  0.74946929  0.75099223  1
" 