217,FeCr70_0,-62.250791788935, 201.003378096084,FeCr70,"# generated using pymatgen
 data_Cr11Fe5
_symmetry_space_group_name_H-M   'P 1'
_cell_length_a   4.97803174
_cell_length_b   4.97803174
_cell_length_c   7.04000000
_cell_angle_alpha   90.00000000
_cell_angle_beta   90.00000000
_cell_angle_gamma   90.00000000
_symmetry_Int_Tables_number   1
_chemical_formula_structural   Cr11Fe5
_chemical_formula_sum   'Cr11 Fe5'
_cell_volume   174.45683200
_cell_formula_units_Z   1
loop_
 _symmetry_equiv_pos_site_id
 _symmetry_equiv_pos_as_xyz
  1  'x, y, z'
loop_
 _atom_site_type_symbol
 _atom_site_label
 _atom_site_symmetry_multiplicity
 _atom_site_fract_x
 _atom_site_fract_y
 _atom_site_fract_z
 _atom_site_occupancy
  Cr  Cr0  1  0.00005819  0.99982900  0.99874807  1
  Cr  Cr1  1  0.24676458  0.25234715  0.25070722  1
  Cr  Cr2  1  0.99972600  0.00074857  0.50087312  1
  Fe  Fe3  1  0.25011317  0.25074227  0.74869989  1
  Cr  Cr4  1  0.00000169  0.50000169  0.99812390  1
  Cr  Cr5  1  0.24870561  0.74870561  0.25077540  1
  Fe  Fe6  1  0.00099622  0.50099622  0.50411956  1
  Fe  Fe7  1  0.24901850  0.74901850  0.74854162  1
  Cr  Cr8  1  0.49976528  0.99976528  0.99938002  1
  Fe  Fe9  1  0.74984082  0.24984082  0.25092309  1
  Cr  Cr10  1  0.49980501  0.99980501  0.50038639  1
  Cr  Cr11  1  0.75153793  0.25153793  0.74969340  1
  Cr  Cr12  1  0.49982900  0.50005819  0.99874807  1
  Cr  Cr13  1  0.75234715  0.74676458  0.25070722  1
  Cr  Cr14  1  0.50074857  0.49972600  0.50087312  1
  Fe  Fe15  1  0.75074227  0.75011317  0.74869989  1
" 