169,FeCr20_9,-65.5513604438592, 134.360996103478,FeCr20,"# generated using pymatgen
 data_Cr3Fe13
_symmetry_space_group_name_H-M   'P 1'
_cell_length_a   4.97803174
_cell_length_b   4.97803174
_cell_length_c   7.04000000
_cell_angle_alpha   90.00000000
_cell_angle_beta   90.00000000
_cell_angle_gamma   90.00000000
_symmetry_Int_Tables_number   1
_chemical_formula_structural   Cr3Fe13
_chemical_formula_sum   'Cr3 Fe13'
_cell_volume   174.45683200
_cell_formula_units_Z   1
loop_
 _symmetry_equiv_pos_site_id
 _symmetry_equiv_pos_as_xyz
  1  'x, y, z'
loop_
 _atom_site_type_symbol
 _atom_site_label
 _atom_site_symmetry_multiplicity
 _atom_site_fract_x
 _atom_site_fract_y
 _atom_site_fract_z
 _atom_site_occupancy
  Cr  Cr0  1  0.99772153  0.99772153  0.99996685  1
  Fe  Fe1  1  0.25136943  0.25136943  0.25000000  1
  Cr  Cr2  1  0.99772153  0.99772153  0.50003315  1
  Cr  Cr3  1  0.25508844  0.25508844  0.75000000  1
  Fe  Fe4  1  0.99946158  0.49970420  0.00186522  1
  Fe  Fe5  1  0.25150416  0.74755905  0.25000000  1
  Fe  Fe6  1  0.99946158  0.49970420  0.49813478  1
  Fe  Fe7  1  0.25230592  0.75052653  0.75000000  1
  Fe  Fe8  1  0.49970420  0.99946158  0.00186522  1
  Fe  Fe9  1  0.74755905  0.25150416  0.25000000  1
  Fe  Fe10  1  0.49970420  0.99946158  0.49813478  1
  Fe  Fe11  1  0.75052653  0.25230592  0.75000000  1
  Fe  Fe12  1  0.50206251  0.50206251  0.00226097  1
  Fe  Fe13  1  0.74748851  0.74748851  0.25000000  1
  Fe  Fe14  1  0.50206251  0.50206251  0.49773903  1
  Fe  Fe15  1  0.74625834  0.74625834  0.75000000  1
" 