430,FeCr70_11,-62.0443282922001, 199.704392292272,FeCr70,"# generated using pymatgen
 data_Cr11Fe5
_symmetry_space_group_name_H-M   'P 1'
_cell_length_a   4.97803174
_cell_length_b   4.97803174
_cell_length_c   7.04000000
_cell_angle_alpha   90.00000000
_cell_angle_beta   90.00000000
_cell_angle_gamma   90.00000000
_symmetry_Int_Tables_number   1
_chemical_formula_structural   Cr11Fe5
_chemical_formula_sum   'Cr11 Fe5'
_cell_volume   174.45683200
_cell_formula_units_Z   1
loop_
 _symmetry_equiv_pos_site_id
 _symmetry_equiv_pos_as_xyz
  1  'x, y, z'
loop_
 _atom_site_type_symbol
 _atom_site_label
 _atom_site_symmetry_multiplicity
 _atom_site_fract_x
 _atom_site_fract_y
 _atom_site_fract_z
 _atom_site_occupancy
  Fe  Fe0  1  1.00000000  0.00000000  0.00000000  1
  Cr  Cr1  1  0.25211247  0.24838888  0.25053563  1
  Cr  Cr2  1  0.00000000  0.00000000  0.50000000  1
  Cr  Cr3  1  0.25158296  0.24744181  0.74948366  1
  Cr  Cr4  1  1.00000000  0.50000000  0.00000000  1
  Cr  Cr5  1  0.25111351  0.75104971  0.25057774  1
  Cr  Cr6  1  0.00000000  0.50000000  0.50000000  1
  Fe  Fe7  1  0.25040209  0.74959059  0.74845548  1
  Cr  Cr8  1  0.50000000  0.00000000  1.00000000  1
  Fe  Fe9  1  0.74959791  0.25040941  0.25154452  1
  Fe  Fe10  1  0.50000000  0.00000000  0.50000000  1
  Cr  Cr11  1  0.74888649  0.24895029  0.74942226  1
  Cr  Cr12  1  0.50000000  0.50000000  0.00000000  1
  Cr  Cr13  1  0.74841704  0.75255819  0.25051634  1
  Fe  Fe14  1  0.50000000  0.50000000  0.50000000  1
  Cr  Cr15  1  0.74788753  0.75161112  0.74946437  1
" 