167,FeCr70_4,-62.2536889913565, 199.839901621666,FeCr70,"# generated using pymatgen
 data_Cr11Fe5
_symmetry_space_group_name_H-M   'P 1'
_cell_length_a   4.97803174
_cell_length_b   4.97803174
_cell_length_c   7.04000000
_cell_angle_alpha   90.00000000
_cell_angle_beta   90.00000000
_cell_angle_gamma   90.00000000
_symmetry_Int_Tables_number   1
_chemical_formula_structural   Cr11Fe5
_chemical_formula_sum   'Cr11 Fe5'
_cell_volume   174.45683200
_cell_formula_units_Z   1
loop_
 _symmetry_equiv_pos_site_id
 _symmetry_equiv_pos_as_xyz
  1  'x, y, z'
loop_
 _atom_site_type_symbol
 _atom_site_label
 _atom_site_symmetry_multiplicity
 _atom_site_fract_x
 _atom_site_fract_y
 _atom_site_fract_z
 _atom_site_occupancy
  Cr  Cr0  1  0.99838553  0.00175681  0.00069100  1
  Fe  Fe1  1  0.25000000  0.25000000  0.25275141  1
  Fe  Fe2  1  0.00043238  0.00020856  0.49843387  1
  Cr  Cr3  1  0.25000000  0.25000000  0.74874587  1
  Cr  Cr4  1  0.99827344  0.49812646  0.00069435  1
  Cr  Cr5  1  0.25000000  0.75000000  0.25031492  1
  Cr  Cr6  1  0.99794782  0.49851890  0.49961896  1
  Cr  Cr7  1  0.25000000  0.75000000  0.74947381  1
  Cr  Cr8  1  0.50172656  0.00187354  0.00069435  1
  Fe  Fe9  1  0.75000000  0.25000000  0.25311021  1
  Cr  Cr10  1  0.50205218  0.00148110  0.49961896  1
  Cr  Cr11  1  0.75000000  0.25000000  0.74828536  1
  Cr  Cr12  1  0.50161447  0.49824319  0.00069100  1
  Cr  Cr13  1  0.75000000  0.75000000  0.25092268  1
  Fe  Fe14  1  0.49956762  0.49979144  0.49843387  1
  Fe  Fe15  1  0.75000000  0.75000000  0.74751939  1
" 