417,FeCr60_3,-63.5631812901212, 179.358816623342,FeCr60,"# generated using pymatgen
 data_Cr9Fe7
_symmetry_space_group_name_H-M   'P 1'
_cell_length_a   4.97803174
_cell_length_b   4.97803174
_cell_length_c   7.04000000
_cell_angle_alpha   90.00000000
_cell_angle_beta   90.00000000
_cell_angle_gamma   90.00000000
_symmetry_Int_Tables_number   1
_chemical_formula_structural   Cr9Fe7
_chemical_formula_sum   'Cr9 Fe7'
_cell_volume   174.45683200
_cell_formula_units_Z   1
loop_
 _symmetry_equiv_pos_site_id
 _symmetry_equiv_pos_as_xyz
  1  'x, y, z'
loop_
 _atom_site_type_symbol
 _atom_site_label
 _atom_site_symmetry_multiplicity
 _atom_site_fract_x
 _atom_site_fract_y
 _atom_site_fract_z
 _atom_site_occupancy
  Fe  Fe0  1  0.00000000  0.00000000  0.00617437  1
  Fe  Fe1  1  0.25029496  0.24957783  0.24850798  1
  Cr  Cr2  1  0.00000000  0.00000000  0.49736384  1
  Cr  Cr3  1  0.25207381  0.24769849  0.75087005  1
  Cr  Cr4  1  0.00000000  0.50000000  0.00060284  1
  Fe  Fe5  1  0.25029496  0.75042217  0.24850798  1
  Cr  Cr6  1  0.00000000  0.50000000  0.49891983  1
  Cr  Cr7  1  0.25207381  0.75230151  0.75087005  1
  Fe  Fe8  1  0.50000000  0.00000000  0.00724589  1
  Fe  Fe9  1  0.74970504  0.24957783  0.24850798  1
  Cr  Cr10  1  0.50000000  0.00000000  0.49638822  1
  Cr  Cr11  1  0.74792619  0.24769849  0.75087005  1
  Cr  Cr12  1  0.50000000  0.50000000  0.00186233  1
  Fe  Fe13  1  0.74970504  0.75042217  0.24850798  1
  Fe  Fe14  1  0.50000000  0.50000000  0.49393057  1
  Cr  Cr15  1  0.74792619  0.75230151  0.75087005  1
" 