456,FeCr20_6,-65.4624642325165, 138.047206676722,FeCr20,"# generated using pymatgen
 data_Cr3Fe13
_symmetry_space_group_name_H-M   'P 1'
_cell_length_a   4.97803174
_cell_length_b   4.97803174
_cell_length_c   7.04000000
_cell_angle_alpha   90.00000000
_cell_angle_beta   90.00000000
_cell_angle_gamma   90.00000000
_symmetry_Int_Tables_number   1
_chemical_formula_structural   Cr3Fe13
_chemical_formula_sum   'Cr3 Fe13'
_cell_volume   174.45683200
_cell_formula_units_Z   1
loop_
 _symmetry_equiv_pos_site_id
 _symmetry_equiv_pos_as_xyz
  1  'x, y, z'
loop_
 _atom_site_type_symbol
 _atom_site_label
 _atom_site_symmetry_multiplicity
 _atom_site_fract_x
 _atom_site_fract_y
 _atom_site_fract_z
 _atom_site_occupancy
  Fe  Fe0  1  0.00189907  0.00148263  0.00199127  1
  Fe  Fe1  1  0.24714873  0.25000000  0.25000000  1
  Fe  Fe2  1  0.99994547  0.00109756  0.49786254  1
  Fe  Fe3  1  0.24572646  0.25000000  0.75000000  1
  Fe  Fe4  1  0.99994547  0.49890244  0.00213746  1
  Fe  Fe5  1  0.24743428  0.75000000  0.25000000  1
  Fe  Fe6  1  0.00189907  0.49851737  0.49800873  1
  Fe  Fe7  1  0.25040835  0.75000000  0.75000000  1
  Fe  Fe8  1  0.49949682  0.99925999  0.00164470  1
  Fe  Fe9  1  0.75192857  0.25000000  0.25000000  1
  Cr  Cr10  1  0.49788661  0.00271081  0.49971228  1
  Fe  Fe11  1  0.75204010  0.25000000  0.75000000  1
  Cr  Cr12  1  0.49788661  0.49728919  0.00028772  1
  Fe  Fe13  1  0.75159096  0.75000000  0.25000000  1
  Fe  Fe14  1  0.49949682  0.50074001  0.49835530  1
  Cr  Cr15  1  0.75526662  0.75000000  0.75000000  1
" 