250,FeCr20_13,-65.5339588889982, 129.995709062551,FeCr20,"# generated using pymatgen
 data_Cr3Fe13
_symmetry_space_group_name_H-M   'P 1'
_cell_length_a   4.97803174
_cell_length_b   4.97803174
_cell_length_c   7.04000000
_cell_angle_alpha   90.00000000
_cell_angle_beta   90.00000000
_cell_angle_gamma   90.00000000
_symmetry_Int_Tables_number   1
_chemical_formula_structural   Cr3Fe13
_chemical_formula_sum   'Cr3 Fe13'
_cell_volume   174.45683200
_cell_formula_units_Z   1
loop_
 _symmetry_equiv_pos_site_id
 _symmetry_equiv_pos_as_xyz
  1  'x, y, z'
loop_
 _atom_site_type_symbol
 _atom_site_label
 _atom_site_symmetry_multiplicity
 _atom_site_fract_x
 _atom_site_fract_y
 _atom_site_fract_z
 _atom_site_occupancy
  Fe  Fe0  1  0.00000000  0.00123862  0.99696730  1
  Fe  Fe1  1  0.24828164  0.25009950  0.24769295  1
  Fe  Fe2  1  0.00000000  0.00132358  0.50324668  1
  Fe  Fe3  1  0.24901793  0.25140003  0.75192000  1
  Fe  Fe4  1  0.00000000  0.49777519  0.99662620  1
  Cr  Cr5  1  0.24841062  0.74758505  0.24958932  1
  Fe  Fe6  1  0.00000000  0.49619479  0.50344575  1
  Fe  Fe7  1  0.24923589  0.74972454  0.75129073  1
  Fe  Fe8  1  0.50000000  0.00122051  0.99749054  1
  Fe  Fe9  1  0.75171836  0.25009950  0.24769295  1
  Cr  Cr10  1  0.50000000  0.00562062  0.50065033  1
  Fe  Fe11  1  0.75098207  0.25140003  0.75192000  1
  Fe  Fe12  1  0.50000000  0.49780499  0.99705376  1
  Cr  Cr13  1  0.75158938  0.74758505  0.24958932  1
  Fe  Fe14  1  0.50000000  0.50120346  0.50353342  1
  Fe  Fe15  1  0.75076411  0.74972454  0.75129073  1
" 