77,FeCr70_2,-62.2365687455314, 196.538788484946,FeCr70,"# generated using pymatgen
 data_Cr11Fe5
_symmetry_space_group_name_H-M   'P 1'
_cell_length_a   4.97803174
_cell_length_b   4.97803174
_cell_length_c   7.04000000
_cell_angle_alpha   90.00000000
_cell_angle_beta   90.00000000
_cell_angle_gamma   90.00000000
_symmetry_Int_Tables_number   1
_chemical_formula_structural   Cr11Fe5
_chemical_formula_sum   'Cr11 Fe5'
_cell_volume   174.45683200
_cell_formula_units_Z   1
loop_
 _symmetry_equiv_pos_site_id
 _symmetry_equiv_pos_as_xyz
  1  'x, y, z'
loop_
 _atom_site_type_symbol
 _atom_site_label
 _atom_site_symmetry_multiplicity
 _atom_site_fract_x
 _atom_site_fract_y
 _atom_site_fract_z
 _atom_site_occupancy
  Cr  Cr0  1  0.00000000  0.99634749  0.99942852  1
  Cr  Cr1  1  0.25163677  0.25171380  0.25027336  1
  Cr  Cr2  1  1.00000000  0.99688588  0.50033430  1
  Cr  Cr3  1  0.25096970  0.25097001  0.75000468  1
  Cr  Cr4  1  0.00000000  0.50275891  0.99857829  1
  Cr  Cr5  1  0.25167101  0.74791844  0.25112566  1
  Fe  Fe6  1  0.00000000  0.50055301  0.50289774  1
  Fe  Fe7  1  0.25085400  0.74942277  0.74801809  1
  Fe  Fe8  1  0.50000000  0.99977082  0.99757863  1
  Cr  Cr9  1  0.74836323  0.25171380  0.25027336  1
  Cr  Cr10  1  0.50000000  0.99716573  0.50083229  1
  Cr  Cr11  1  0.74903030  0.25097001  0.75000468  1
  Cr  Cr12  1  0.50000000  0.50554358  0.99812598  1
  Cr  Cr13  1  0.74832899  0.74791844  0.25112566  1
  Fe  Fe14  1  0.50000000  0.50092451  0.50338065  1
  Fe  Fe15  1  0.74914600  0.74942277  0.74801809  1
" 