281,FeCr70_3,-62.3188817532821, 204.435340090689,FeCr70,"# generated using pymatgen
 data_Cr11Fe5
_symmetry_space_group_name_H-M   'P 1'
_cell_length_a   4.97803174
_cell_length_b   4.97803174
_cell_length_c   7.04000000
_cell_angle_alpha   90.00000000
_cell_angle_beta   90.00000000
_cell_angle_gamma   90.00000000
_symmetry_Int_Tables_number   1
_chemical_formula_structural   Cr11Fe5
_chemical_formula_sum   'Cr11 Fe5'
_cell_volume   174.45683200
_cell_formula_units_Z   1
loop_
 _symmetry_equiv_pos_site_id
 _symmetry_equiv_pos_as_xyz
  1  'x, y, z'
loop_
 _atom_site_type_symbol
 _atom_site_label
 _atom_site_symmetry_multiplicity
 _atom_site_fract_x
 _atom_site_fract_y
 _atom_site_fract_z
 _atom_site_occupancy
  Cr  Cr0  1  0.00475265  0.00000000  0.00000000  1
  Cr  Cr1  1  0.24813035  0.24753444  0.24925816  1
  Fe  Fe2  1  0.00008559  0.00000000  0.50000000  1
  Fe  Fe3  1  0.24997573  0.25029786  0.75161266  1
  Fe  Fe4  1  0.99972174  0.50000000  0.00000000  1
  Fe  Fe5  1  0.24997573  0.74970214  0.24838734  1
  Cr  Cr6  1  0.00381512  0.50000000  0.50000000  1
  Cr  Cr7  1  0.24813035  0.75246556  0.75074184  1
  Fe  Fe8  1  0.50086474  0.00000000  0.00000000  1
  Cr  Cr9  1  0.75077803  0.24893241  0.24974638  1
  Cr  Cr10  1  0.49497688  0.00000000  0.50000000  1
  Cr  Cr11  1  0.75213962  0.24844036  0.75020110  1
  Cr  Cr12  1  0.49591932  0.50000000  0.00000000  1
  Cr  Cr13  1  0.75213962  0.75155964  0.24979890  1
  Cr  Cr14  1  0.49781650  0.50000000  0.50000000  1
  Cr  Cr15  1  0.75077803  0.75106759  0.75025362  1
" 