132,Ni10Fe80Cr10_5,-226.047732742576, 154.946748851404,Ni10Fe80Cr10,"# generated using pymatgen
 data_Cr6Fe43Ni5
_symmetry_space_group_name_H-M   'P 1'
_cell_length_a   7.46704761
_cell_length_b   7.46704761
_cell_length_c   10.56000000
_cell_angle_alpha   90.00000000
_cell_angle_beta   90.00000000
_cell_angle_gamma   90.00000000
_symmetry_Int_Tables_number   1
_chemical_formula_structural   Cr6Fe43Ni5
_chemical_formula_sum   'Cr6 Fe43 Ni5'
_cell_volume   588.79180800
_cell_formula_units_Z   1
loop_
 _symmetry_equiv_pos_site_id
 _symmetry_equiv_pos_as_xyz
  1  'x, y, z'
loop_
 _atom_site_type_symbol
 _atom_site_label
 _atom_site_symmetry_multiplicity
 _atom_site_fract_x
 _atom_site_fract_y
 _atom_site_fract_z
 _atom_site_occupancy
  Fe  Fe0  1  0.00154925  0.00365717  0.99895821  1
  Fe  Fe1  1  0.16568307  0.16934728  0.16451291  1
  Fe  Fe2  1  0.99992114  0.00262990  0.33481641  1
  Fe  Fe3  1  0.00136533  0.33329736  0.99972571  1
  Fe  Fe4  1  0.16618979  0.49885565  0.16598545  1
  Ni  Ni5  1  0.99926516  0.33544575  0.33257453  1
  Fe  Fe6  1  0.00106944  0.66360773  0.99938278  1
  Cr  Cr7  1  0.16531844  0.83364056  0.16632518  1
  Fe  Fe8  1  0.99891625  0.66838749  0.33421388  1
  Fe  Fe9  1  0.33300111  0.00255760  0.99857614  1
  Fe  Fe10  1  0.49928618  0.16696961  0.16431927  1
  Cr  Cr11  1  0.33302665  0.99925427  0.33554995  1
  Ni  Ni12  1  0.33278479  0.33386007  0.99858808  1
  Fe  Fe13  1  0.49907865  0.49960447  0.16501501  1
  Cr  Cr14  1  0.33293918  0.33235954  0.33351320  1
  Fe  Fe15  1  0.33298402  0.66525675  0.99814934  1
  Fe  Fe16  1  0.50010903  0.83110969  0.16437321  1
  Fe  Fe17  1  0.33426329  0.66665910  0.33384261  1
  Fe  Fe18  1  0.66482361  0.00216181  0.00150377  1
  Fe  Fe19  1  0.83513379  0.16748132  0.16643840  1
  Cr  Cr20  1  0.66668462  0.99650031  0.33287262  1
  Fe  Fe21  1  0.66589861  0.33313540  0.99962503  1
  Fe  Fe22  1  0.83413869  0.49979955  0.16650011  1
  Fe  Fe23  1  0.66853664  0.33265008  0.33336603  1
  Fe  Fe24  1  0.66426471  0.66361032  0.00017906  1
  Fe  Fe25  1  0.83217062  0.83204495  0.16457199  1
  Fe  Fe26  1  0.66715366  0.66279553  0.33326834  1
  Fe  Fe27  1  0.16352582  0.16526252  0.50247638  1
  Fe  Fe28  1  0.99973502  0.99998382  0.66675216  1
  Ni  Ni29  1  0.16784611  0.16832148  0.83294916  1
  Cr  Cr30  1  0.16858554  0.50065095  0.50030190  1
  Fe  Fe31  1  0.99994859  0.33259286  0.66704549  1
  Fe  Fe32  1  0.16637311  0.49945964  0.83257481  1
  Ni  Ni33  1  0.16466620  0.83378110  0.50178600  1
  Fe  Fe34  1  0.99893411  0.66824769  0.66645730  1
  Fe  Fe35  1  0.16715288  0.83527867  0.83271983  1
  Fe  Fe36  1  0.50106424  0.16573330  0.50280853  1
  Fe  Fe37  1  0.33209669  0.00044191  0.66653233  1
  Fe  Fe38  1  0.50009059  0.16651866  0.83340802  1
  Fe  Fe39  1  0.50320195  0.50148306  0.50155861  1
  Fe  Fe40  1  0.33464523  0.33256723  0.66871873  1
  Fe  Fe41  1  0.49952009  0.49905504  0.83319540  1
  Fe  Fe42  1  0.49940035  0.83025525  0.50241022  1
  Fe  Fe43  1  0.33349482  0.66825508  0.66797723  1
  Fe  Fe44  1  0.49749943  0.83490005  0.83351949  1
  Fe  Fe45  1  0.83551440  0.16695531  0.49995222  1
  Fe  Fe46  1  0.66721790  0.99967454  0.66542729  1
  Fe  Fe47  1  0.83457124  0.16795332  0.83328881  1
  Fe  Fe48  1  0.83437895  0.50157728  0.49989213  1
  Fe  Fe49  1  0.66776789  0.33334795  0.66680623  1
  Fe  Fe50  1  0.83423773  0.49737098  0.83315827  1
  Ni  Ni51  1  0.83352768  0.83357002  0.49895088  1
  Fe  Fe52  1  0.66736483  0.66668872  0.66656576  1
  Cr  Cr53  1  0.83208288  0.83339430  0.83601962  1
" 