103,Ni10Fe80Cr10_13,-225.877235958235, 155.595663635649,Ni10Fe80Cr10,"# generated using pymatgen
 data_Cr6Fe43Ni5
_symmetry_space_group_name_H-M   'P 1'
_cell_length_a   7.46704761
_cell_length_b   7.46704761
_cell_length_c   10.56000000
_cell_angle_alpha   90.00000000
_cell_angle_beta   90.00000000
_cell_angle_gamma   90.00000000
_symmetry_Int_Tables_number   1
_chemical_formula_structural   Cr6Fe43Ni5
_chemical_formula_sum   'Cr6 Fe43 Ni5'
_cell_volume   588.79180800
_cell_formula_units_Z   1
loop_
 _symmetry_equiv_pos_site_id
 _symmetry_equiv_pos_as_xyz
  1  'x, y, z'
loop_
 _atom_site_type_symbol
 _atom_site_label
 _atom_site_symmetry_multiplicity
 _atom_site_fract_x
 _atom_site_fract_y
 _atom_site_fract_z
 _atom_site_occupancy
  Fe  Fe0  1  0.99769648  0.99837542  0.99784337  1
  Cr  Cr1  1  0.16466923  0.16878044  0.16683501  1
  Fe  Fe2  1  0.99943433  0.00223835  0.33527610  1
  Fe  Fe3  1  0.99806567  0.33456851  0.00016656  1
  Fe  Fe4  1  0.16411322  0.50150929  0.16618019  1
  Ni  Ni5  1  0.99953890  0.33264770  0.33396343  1
  Ni  Ni6  1  0.99866600  0.66478532  0.99792056  1
  Fe  Fe7  1  0.16590887  0.83236622  0.16611535  1
  Cr  Cr8  1  0.99901624  0.66513492  0.33598021  1
  Cr  Cr9  1  0.33332326  0.00205386  0.00015179  1
  Fe  Fe10  1  0.50294620  0.16750497  0.16730673  1
  Fe  Fe11  1  0.33248953  0.00010391  0.33333923  1
  Fe  Fe12  1  0.33335279  0.33912383  0.99988201  1
  Fe  Fe13  1  0.50119492  0.49951138  0.16672900  1
  Fe  Fe14  1  0.33275446  0.33473195  0.33394607  1
  Fe  Fe15  1  0.33268420  0.66688965  0.00037281  1
  Fe  Fe16  1  0.50021107  0.83326203  0.16747399  1
  Fe  Fe17  1  0.33293505  0.66566567  0.33345689  1
  Fe  Fe18  1  0.66893482  0.99810230  0.00000399  1
  Ni  Ni19  1  0.83297832  0.16632661  0.16623882  1
  Fe  Fe20  1  0.66771285  0.00186072  0.33391418  1
  Fe  Fe21  1  0.66825842  0.33389094  0.00099583  1
  Fe  Fe22  1  0.83396998  0.49675584  0.16588797  1
  Fe  Fe23  1  0.66892165  0.33270807  0.33310212  1
  Ni  Ni24  1  0.66662004  0.66440082  0.00051892  1
  Cr  Cr25  1  0.83360022  0.83239348  0.16670040  1
  Fe  Fe26  1  0.66476860  0.66433832  0.33422471  1
  Fe  Fe27  1  0.16665069  0.16698318  0.49984243  1
  Ni  Ni28  1  0.00204675  0.00173923  0.66685317  1
  Fe  Fe29  1  0.16507837  0.16847530  0.83231669  1
  Fe  Fe30  1  0.16684385  0.49847567  0.50090493  1
  Fe  Fe31  1  0.99937901  0.33341214  0.66539018  1
  Fe  Fe32  1  0.16604752  0.50027368  0.83307828  1
  Fe  Fe33  1  0.16726898  0.83504655  0.50160048  1
  Fe  Fe34  1  0.00081977  0.66825787  0.66707548  1
  Fe  Fe35  1  0.16548028  0.83342162  0.83268230  1
  Fe  Fe36  1  0.50002368  0.16639669  0.50049819  1
  Fe  Fe37  1  0.33347328  0.99893461  0.66668314  1
  Cr  Cr38  1  0.50190206  0.16839587  0.83234891  1
  Fe  Fe39  1  0.49856529  0.49828535  0.49919113  1
  Fe  Fe40  1  0.33224374  0.33395992  0.66593233  1
  Fe  Fe41  1  0.49934913  0.50166208  0.83407271  1
  Fe  Fe42  1  0.49925102  0.83403949  0.49846668  1
  Fe  Fe43  1  0.33091791  0.66760179  0.66629290  1
  Fe  Fe44  1  0.50085491  0.83164709  0.83404725  1
  Fe  Fe45  1  0.83496014  0.16628776  0.49924253  1
  Fe  Fe46  1  0.66971066  0.00009702  0.66569705  1
  Fe  Fe47  1  0.83616432  0.16606036  0.83346129  1
  Fe  Fe48  1  0.83315270  0.49712854  0.50005835  1
  Fe  Fe49  1  0.66894312  0.33092624  0.66527513  1
  Fe  Fe50  1  0.83261680  0.49881017  0.83418703  1
  Fe  Fe51  1  0.83384495  0.83566067  0.50093602  1
  Cr  Cr52  1  0.66618080  0.66501527  0.66554266  1
  Fe  Fe53  1  0.83346492  0.83297536  0.83379656  1
" 