118,Ni10Fe80Cr10_3,-226.062924283165, 153.645459305378,Ni10Fe80Cr10,"# generated using pymatgen
 data_Cr6Fe43Ni5
_symmetry_space_group_name_H-M   'P 1'
_cell_length_a   7.46704761
_cell_length_b   7.46704761
_cell_length_c   10.56000000
_cell_angle_alpha   90.00000000
_cell_angle_beta   90.00000000
_cell_angle_gamma   90.00000000
_symmetry_Int_Tables_number   1
_chemical_formula_structural   Cr6Fe43Ni5
_chemical_formula_sum   'Cr6 Fe43 Ni5'
_cell_volume   588.79180800
_cell_formula_units_Z   1
loop_
 _symmetry_equiv_pos_site_id
 _symmetry_equiv_pos_as_xyz
  1  'x, y, z'
loop_
 _atom_site_type_symbol
 _atom_site_label
 _atom_site_symmetry_multiplicity
 _atom_site_fract_x
 _atom_site_fract_y
 _atom_site_fract_z
 _atom_site_occupancy
  Fe  Fe0  1  0.99980648  0.99848060  0.00003443  1
  Cr  Cr1  1  0.16985135  0.16534559  0.16417761  1
  Ni  Ni2  1  0.00048649  0.99903837  0.33350446  1
  Fe  Fe3  1  0.99984315  0.33469330  0.99930127  1
  Fe  Fe4  1  0.16850525  0.50107605  0.16741082  1
  Fe  Fe5  1  0.00140436  0.33119115  0.33370687  1
  Fe  Fe6  1  0.00125443  0.66551624  0.99893582  1
  Fe  Fe7  1  0.16576519  0.83123290  0.16568669  1
  Fe  Fe8  1  0.00168298  0.66956669  0.33384232  1
  Fe  Fe9  1  0.33476280  0.99709648  0.99887789  1
  Fe  Fe10  1  0.50329625  0.16723993  0.16613512  1
  Fe  Fe11  1  0.33346773  0.99887925  0.33449886  1
  Fe  Fe12  1  0.33460799  0.33595409  0.99960623  1
  Fe  Fe13  1  0.49840179  0.49952748  0.16771911  1
  Fe  Fe14  1  0.33350654  0.33227312  0.33436327  1
  Fe  Fe15  1  0.33370176  0.66568661  0.99940514  1
  Fe  Fe16  1  0.49947409  0.83323331  0.16727946  1
  Fe  Fe17  1  0.33226227  0.66804111  0.33379890  1
  Fe  Fe18  1  0.66574698  0.00035807  0.00190607  1
  Fe  Fe19  1  0.83383713  0.16622915  0.16624277  1
  Fe  Fe20  1  0.66800026  0.00054105  0.33386184  1
  Ni  Ni21  1  0.66579909  0.33513374  0.00132976  1
  Cr  Cr22  1  0.83345867  0.50224016  0.16718416  1
  Fe  Fe23  1  0.66672629  0.33126317  0.33378090  1
  Fe  Fe24  1  0.66420068  0.66644622  0.99969141  1
  Fe  Fe25  1  0.83398484  0.83634769  0.16685208  1
  Fe  Fe26  1  0.66598144  0.67037208  0.33465856  1
  Fe  Fe27  1  0.16588778  0.16597094  0.49942834  1
  Fe  Fe28  1  0.00002827  0.99935925  0.66543574  1
  Fe  Fe29  1  0.16548572  0.16414506  0.83365499  1
  Fe  Fe30  1  0.16839095  0.49997579  0.49951345  1
  Fe  Fe31  1  0.99999091  0.33388725  0.66654270  1
  Fe  Fe32  1  0.16663714  0.49942238  0.83294728  1
  Fe  Fe33  1  0.16557734  0.83302780  0.50116580  1
  Fe  Fe34  1  0.00067079  0.66550368  0.66746895  1
  Ni  Ni35  1  0.16766950  0.83186733  0.83323654  1
  Fe  Fe36  1  0.50038618  0.16745437  0.50096181  1
  Fe  Fe37  1  0.33309874  0.99838440  0.66606444  1
  Cr  Cr38  1  0.49808389  0.16745339  0.83310753  1
  Fe  Fe39  1  0.49924993  0.50053637  0.50019560  1
  Fe  Fe40  1  0.33356904  0.33486624  0.66537021  1
  Fe  Fe41  1  0.50140062  0.50169734  0.83283834  1
  Fe  Fe42  1  0.50032785  0.83231206  0.50080223  1
  Fe  Fe43  1  0.33402807  0.66570219  0.66709211  1
  Fe  Fe44  1  0.49797620  0.83213446  0.83231046  1
  Fe  Fe45  1  0.83374844  0.16587909  0.50052166  1
  Fe  Fe46  1  0.66521993  0.99989025  0.66444719  1
  Cr  Cr47  1  0.83166342  0.16855186  0.83337291  1
  Cr  Cr48  1  0.83347947  0.50176628  0.50075339  1
  Ni  Ni49  1  0.66569990  0.33531502  0.66557520  1
  Fe  Fe50  1  0.83174567  0.49969236  0.83273262  1
  Fe  Fe51  1  0.83327181  0.83534497  0.50111481  1
  Ni  Ni52  1  0.66475429  0.66589348  0.66720992  1
  Cr  Cr53  1  0.83214190  0.83096280  0.83234396  1
" 