137,Ni10Fe80Cr10_12,-226.049645222535, 157.95240123605,Ni10Fe80Cr10,"# generated using pymatgen
 data_Cr6Fe43Ni5
_symmetry_space_group_name_H-M   'P 1'
_cell_length_a   7.46704761
_cell_length_b   7.46704761
_cell_length_c   10.56000000
_cell_angle_alpha   90.00000000
_cell_angle_beta   90.00000000
_cell_angle_gamma   90.00000000
_symmetry_Int_Tables_number   1
_chemical_formula_structural   Cr6Fe43Ni5
_chemical_formula_sum   'Cr6 Fe43 Ni5'
_cell_volume   588.79180800
_cell_formula_units_Z   1
loop_
 _symmetry_equiv_pos_site_id
 _symmetry_equiv_pos_as_xyz
  1  'x, y, z'
loop_
 _atom_site_type_symbol
 _atom_site_label
 _atom_site_symmetry_multiplicity
 _atom_site_fract_x
 _atom_site_fract_y
 _atom_site_fract_z
 _atom_site_occupancy
  Fe  Fe0  1  0.99994562  0.99845118  0.00033821  1
  Fe  Fe1  1  0.16895611  0.16546431  0.16849865  1
  Fe  Fe2  1  0.00209428  0.00064374  0.33227579  1
  Cr  Cr3  1  0.99985832  0.33291870  0.00026119  1
  Fe  Fe4  1  0.16812786  0.50152517  0.16746301  1
  Cr  Cr5  1  0.99688114  0.33445921  0.33294567  1
  Fe  Fe6  1  0.99959960  0.66794684  0.00046940  1
  Fe  Fe7  1  0.16831267  0.83395735  0.16777439  1
  Fe  Fe8  1  0.00142395  0.66822127  0.33265181  1
  Fe  Fe9  1  0.33315424  0.00192421  0.00222909  1
  Fe  Fe10  1  0.49817932  0.16506650  0.16996258  1
  Ni  Ni11  1  0.33517384  0.99862437  0.33513001  1
  Fe  Fe12  1  0.33323464  0.33320297  0.00139450  1
  Fe  Fe13  1  0.49767550  0.49998605  0.16839014  1
  Ni  Ni14  1  0.33168062  0.33372074  0.33369069  1
  Fe  Fe15  1  0.33294057  0.66547713  0.00070560  1
  Fe  Fe16  1  0.49990289  0.83336900  0.16771992  1
  Fe  Fe17  1  0.33394752  0.66709854  0.33454629  1
  Fe  Fe18  1  0.66878805  0.99854267  0.00249718  1
  Fe  Fe19  1  0.83251039  0.16322882  0.16819369  1
  Ni  Ni20  1  0.66646102  0.99854643  0.33221982  1
  Cr  Cr21  1  0.66659021  0.33186439  0.00173723  1
  Fe  Fe22  1  0.83179044  0.50254735  0.16849548  1
  Fe  Fe23  1  0.66298162  0.33135947  0.33305609  1
  Fe  Fe24  1  0.66842757  0.66661718  0.00118860  1
  Fe  Fe25  1  0.83380592  0.83304986  0.16739321  1
  Fe  Fe26  1  0.66492192  0.66505182  0.33279401  1
  Fe  Fe27  1  0.16606608  0.16690383  0.49906189  1
  Fe  Fe28  1  0.00094658  0.99905109  0.66759982  1
  Fe  Fe29  1  0.16746874  0.16491481  0.83235611  1
  Fe  Fe30  1  0.16449664  0.50049253  0.49896503  1
  Fe  Fe31  1  0.99954143  0.33377081  0.66567831  1
  Fe  Fe32  1  0.16678763  0.50150910  0.83267252  1
  Fe  Fe33  1  0.16646099  0.83452720  0.49801625  1
  Fe  Fe34  1  0.99849875  0.66622230  0.66701648  1
  Fe  Fe35  1  0.16534454  0.83409615  0.83396152  1
  Fe  Fe36  1  0.50110120  0.16678613  0.49757946  1
  Fe  Fe37  1  0.33361450  0.00309919  0.66402854  1
  Fe  Fe38  1  0.50014798  0.16749605  0.83254886  1
  Fe  Fe39  1  0.50152756  0.49863688  0.49814750  1
  Fe  Fe40  1  0.33321087  0.33312769  0.66454997  1
  Fe  Fe41  1  0.50027281  0.49999400  0.83307250  1
  Fe  Fe42  1  0.50173912  0.83412745  0.49794431  1
  Cr  Cr43  1  0.33362311  0.66927692  0.66317021  1
  Cr  Cr44  1  0.50211876  0.83513372  0.83450487  1
  Fe  Fe45  1  0.83141724  0.16741614  0.49997163  1
  Fe  Fe46  1  0.66725547  0.00010218  0.66581999  1
  Fe  Fe47  1  0.83261066  0.16343227  0.83189064  1
  Ni  Ni48  1  0.83213881  0.49993547  0.49998367  1
  Fe  Fe49  1  0.66626907  0.33402158  0.66598719  1
  Fe  Fe50  1  0.83267574  0.50160674  0.83141833  1
  Cr  Cr51  1  0.83392485  0.83270462  0.49864443  1
  Fe  Fe52  1  0.66887243  0.66587743  0.66667558  1
  Ni  Ni53  1  0.83450264  0.83287249  0.83471215  1
" 