373,Ni10Fe10Cr80_11,-236.848986001509, 182.260025261886,Ni10Fe10Cr80,"# generated using pymatgen
 data_Cr6Fe5Ni43
_symmetry_space_group_name_H-M   'P 1'
_cell_length_a   7.46704761
_cell_length_b   7.46704761
_cell_length_c   10.56000000
_cell_angle_alpha   90.00000000
_cell_angle_beta   90.00000000
_cell_angle_gamma   90.00000000
_symmetry_Int_Tables_number   1
_chemical_formula_structural   Cr6Fe5Ni43
_chemical_formula_sum   'Cr6 Fe5 Ni43'
_cell_volume   588.79180800
_cell_formula_units_Z   1
loop_
 _symmetry_equiv_pos_site_id
 _symmetry_equiv_pos_as_xyz
  1  'x, y, z'
loop_
 _atom_site_type_symbol
 _atom_site_label
 _atom_site_symmetry_multiplicity
 _atom_site_fract_x
 _atom_site_fract_y
 _atom_site_fract_z
 _atom_site_occupancy
  Ni  Ni0  1  0.00079367  0.00006846  0.00060731  1
  Ni  Ni1  1  0.16735012  0.16712396  0.16594117  1
  Ni  Ni2  1  0.00114691  0.00050746  0.33276275  1
  Ni  Ni3  1  0.00045579  0.33415720  0.99969097  1
  Ni  Ni4  1  0.16743730  0.49898264  0.16621040  1
  Ni  Ni5  1  0.99946562  0.33130440  0.33096982  1
  Ni  Ni6  1  0.00270814  0.66589380  0.00070303  1
  Ni  Ni7  1  0.16706027  0.83399760  0.16706221  1
  Ni  Ni8  1  0.00169537  0.66769547  0.33032617  1
  Ni  Ni9  1  0.33348949  0.99838107  0.99959678  1
  Ni  Ni10  1  0.49804839  0.16556898  0.16701385  1
  Ni  Ni11  1  0.33353448  0.99926160  0.33341877  1
  Ni  Ni12  1  0.33311192  0.33444602  0.99884739  1
  Ni  Ni13  1  0.49813040  0.50069874  0.16879489  1
  Ni  Ni14  1  0.33478601  0.33218568  0.33301929  1
  Ni  Ni15  1  0.33245679  0.66710828  0.00028907  1
  Ni  Ni16  1  0.50022448  0.83382953  0.16657828  1
  Ni  Ni17  1  0.33377947  0.66782601  0.33262473  1
  Ni  Ni18  1  0.66550249  0.00080787  0.00086992  1
  Ni  Ni19  1  0.83450233  0.16507340  0.16808898  1
  Ni  Ni20  1  0.66549965  0.00172582  0.33274315  1
  Cr  Cr21  1  0.66745451  0.33311998  0.00120905  1
  Ni  Ni22  1  0.83461932  0.50114927  0.16820544  1
  Ni  Ni23  1  0.66549862  0.33207428  0.33301015  1
  Fe  Fe24  1  0.66570383  0.66712438  0.00205049  1
  Ni  Ni25  1  0.83303661  0.83396695  0.16645919  1
  Ni  Ni26  1  0.66459881  0.66674283  0.33175972  1
  Ni  Ni27  1  0.16630519  0.16461927  0.50018788  1
  Ni  Ni28  1  0.00156860  0.00113172  0.66682827  1
  Ni  Ni29  1  0.16625756  0.16656069  0.83365046  1
  Cr  Cr30  1  0.16799084  0.49682250  0.49886384  1
  Ni  Ni31  1  0.99870007  0.33224964  0.66889592  1
  Ni  Ni32  1  0.16744669  0.49870575  0.83354618  1
  Fe  Fe33  1  0.16857685  0.83416820  0.49983909  1
  Ni  Ni34  1  0.00458374  0.66614371  0.66873062  1
  Ni  Ni35  1  0.16852468  0.83340552  0.83278985  1
  Ni  Ni36  1  0.49759552  0.16496463  0.49966914  1
  Ni  Ni37  1  0.33367939  0.99702999  0.66712791  1
  Fe  Fe38  1  0.49823915  0.16527470  0.83423820  1
  Ni  Ni39  1  0.49823126  0.50131175  0.49866260  1
  Fe  Fe40  1  0.33101988  0.33118331  0.66721604  1
  Ni  Ni41  1  0.49781552  0.50323706  0.83246632  1
  Ni  Ni42  1  0.49954654  0.83395431  0.49993496  1
  Ni  Ni43  1  0.33401106  0.66758747  0.66676068  1
  Ni  Ni44  1  0.49885474  0.83273473  0.83364460  1
  Ni  Ni45  1  0.83433406  0.16558443  0.49909970  1
  Ni  Ni46  1  0.66447785  0.00255950  0.66704847  1
  Ni  Ni47  1  0.83588333  0.16656794  0.83324564  1
  Cr  Cr48  1  0.83383884  0.50082530  0.49809688  1
  Cr  Cr49  1  0.66567616  0.33292714  0.66651398  1
  Ni  Ni50  1  0.83445805  0.50066551  0.83323430  1
  Cr  Cr51  1  0.83286284  0.83574208  0.50015404  1
  Fe  Fe52  1  0.66537657  0.66872595  0.66654713  1
  Cr  Cr53  1  0.83205426  0.83449548  0.83415431  1
" 