425,Ni10Fe10Cr80_9,-236.934617832317, 183.025646312861,Ni10Fe10Cr80,"# generated using pymatgen
 data_Cr6Fe5Ni43
_symmetry_space_group_name_H-M   'P 1'
_cell_length_a   7.46704761
_cell_length_b   7.46704761
_cell_length_c   10.56000000
_cell_angle_alpha   90.00000000
_cell_angle_beta   90.00000000
_cell_angle_gamma   90.00000000
_symmetry_Int_Tables_number   1
_chemical_formula_structural   Cr6Fe5Ni43
_chemical_formula_sum   'Cr6 Fe5 Ni43'
_cell_volume   588.79180800
_cell_formula_units_Z   1
loop_
 _symmetry_equiv_pos_site_id
 _symmetry_equiv_pos_as_xyz
  1  'x, y, z'
loop_
 _atom_site_type_symbol
 _atom_site_label
 _atom_site_symmetry_multiplicity
 _atom_site_fract_x
 _atom_site_fract_y
 _atom_site_fract_z
 _atom_site_occupancy
  Ni  Ni0  1  0.99988811  0.99989203  0.99955567  1
  Ni  Ni1  1  0.16694445  0.16656807  0.16615190  1
  Ni  Ni2  1  0.99924947  0.99942773  0.33213828  1
  Ni  Ni3  1  0.00176109  0.33373044  0.99969028  1
  Ni  Ni4  1  0.16498519  0.49980512  0.16589372  1
  Ni  Ni5  1  0.99934534  0.33420595  0.33246783  1
  Ni  Ni6  1  0.00060168  0.66614907  0.00048269  1
  Ni  Ni7  1  0.16491760  0.83488478  0.16544810  1
  Ni  Ni8  1  0.99830624  0.66663792  0.33279513  1
  Ni  Ni9  1  0.33286184  0.00307865  0.00108250  1
  Ni  Ni10  1  0.50015960  0.16523508  0.16668650  1
  Ni  Ni11  1  0.33411655  0.00191692  0.33231920  1
  Ni  Ni12  1  0.33225877  0.33202813  0.99917153  1
  Cr  Cr13  1  0.50066494  0.49720876  0.16516785  1
  Ni  Ni14  1  0.33343583  0.33197662  0.33317748  1
  Fe  Fe15  1  0.32969626  0.66745068  0.99917693  1
  Fe  Fe16  1  0.50101744  0.83607572  0.16747089  1
  Cr  Cr17  1  0.33237707  0.66736059  0.33402109  1
  Ni  Ni18  1  0.66724554  0.00104398  0.00095572  1
  Ni  Ni19  1  0.83377947  0.16583089  0.16654387  1
  Ni  Ni20  1  0.66694592  0.00048823  0.33328288  1
  Fe  Fe21  1  0.66900749  0.32958527  0.99921879  1
  Ni  Ni22  1  0.83593874  0.49948691  0.16752695  1
  Ni  Ni23  1  0.66717426  0.33246518  0.33288007  1
  Cr  Cr24  1  0.67040057  0.66675853  0.99923197  1
  Ni  Ni25  1  0.83523871  0.83418601  0.16742215  1
  Ni  Ni26  1  0.66953770  0.66698618  0.33518176  1
  Cr  Cr27  1  0.16523354  0.16632370  0.50003937  1
  Ni  Ni28  1  0.99889017  0.00035835  0.66847861  1
  Fe  Fe29  1  0.16673270  0.16689198  0.83394796  1
  Ni  Ni30  1  0.16685508  0.50012063  0.49927641  1
  Fe  Fe31  1  0.99836765  0.33303266  0.66722454  1
  Ni  Ni32  1  0.16736696  0.50027311  0.83457859  1
  Ni  Ni33  1  0.16674845  0.83376721  0.50029179  1
  Cr  Cr34  1  0.99881349  0.66719823  0.66591883  1
  Ni  Ni35  1  0.16530083  0.83401501  0.83433133  1
  Ni  Ni36  1  0.50103314  0.16716693  0.49981260  1
  Ni  Ni37  1  0.33314679  0.00121409  0.66683158  1
  Ni  Ni38  1  0.50080134  0.16800558  0.83384858  1
  Ni  Ni39  1  0.50058314  0.49911278  0.50186733  1
  Ni  Ni40  1  0.33463478  0.33386599  0.66750194  1
  Ni  Ni41  1  0.49882668  0.49699269  0.83268737  1
  Ni  Ni42  1  0.50060769  0.83440286  0.50088859  1
  Ni  Ni43  1  0.33309507  0.66510417  0.66702204  1
  Cr  Cr44  1  0.49889468  0.83425856  0.83233627  1
  Ni  Ni45  1  0.83093087  0.16650332  0.49973421  1
  Ni  Ni46  1  0.66759312  0.00141725  0.66604925  1
  Ni  Ni47  1  0.83293116  0.16575412  0.83374790  1
  Ni  Ni48  1  0.83168204  0.49875770  0.49835729  1
  Ni  Ni49  1  0.66545310  0.33291229  0.66802975  1
  Ni  Ni50  1  0.83372123  0.49753334  0.83379229  1
  Ni  Ni51  1  0.83273274  0.83465699  0.49946498  1
  Ni  Ni52  1  0.66612871  0.66500129  0.66563785  1
  Ni  Ni53  1  0.83503898  0.83489570  0.83316098  1
" 