75,Ni10Fe10Cr80_6,-236.861819400619, 181.047647175939,Ni10Fe10Cr80,"# generated using pymatgen
 data_Cr6Fe5Ni43
_symmetry_space_group_name_H-M   'P 1'
_cell_length_a   7.46704761
_cell_length_b   7.46704761
_cell_length_c   10.56000000
_cell_angle_alpha   90.00000000
_cell_angle_beta   90.00000000
_cell_angle_gamma   90.00000000
_symmetry_Int_Tables_number   1
_chemical_formula_structural   Cr6Fe5Ni43
_chemical_formula_sum   'Cr6 Fe5 Ni43'
_cell_volume   588.79180800
_cell_formula_units_Z   1
loop_
 _symmetry_equiv_pos_site_id
 _symmetry_equiv_pos_as_xyz
  1  'x, y, z'
loop_
 _atom_site_type_symbol
 _atom_site_label
 _atom_site_symmetry_multiplicity
 _atom_site_fract_x
 _atom_site_fract_y
 _atom_site_fract_z
 _atom_site_occupancy
  Ni  Ni0  1  0.99882608  0.00299589  0.99976652  1
  Fe  Fe1  1  0.16834439  0.16605285  0.16616275  1
  Ni  Ni2  1  0.99948940  0.99908348  0.33394609  1
  Ni  Ni3  1  0.00076656  0.33057905  0.99957578  1
  Ni  Ni4  1  0.16966638  0.49772756  0.16812090  1
  Cr  Cr5  1  0.00064118  0.33111554  0.33361121  1
  Cr  Cr6  1  0.99853439  0.66637036  0.99737845  1
  Cr  Cr7  1  0.16657175  0.83316953  0.16840181  1
  Ni  Ni8  1  0.99966628  0.66859144  0.33605600  1
  Ni  Ni9  1  0.33507312  0.00313492  0.99915879  1
  Ni  Ni10  1  0.50115973  0.16709293  0.16785510  1
  Ni  Ni11  1  0.33329549  0.00012932  0.33460346  1
  Ni  Ni12  1  0.33391698  0.33113301  0.00102689  1
  Ni  Ni13  1  0.49898085  0.49880119  0.16708545  1
  Ni  Ni14  1  0.33566860  0.33272142  0.33301102  1
  Cr  Cr15  1  0.33663190  0.66609242  0.99803057  1
  Ni  Ni16  1  0.50170834  0.83470587  0.16760886  1
  Ni  Ni17  1  0.33503401  0.66631646  0.33446327  1
  Ni  Ni18  1  0.66641663  0.00053600  0.00062323  1
  Ni  Ni19  1  0.83159570  0.16460878  0.16557340  1
  Fe  Fe20  1  0.66624374  0.00023914  0.33374949  1
  Ni  Ni21  1  0.66586065  0.33200983  0.99835754  1
  Cr  Cr22  1  0.83188524  0.50000584  0.16657191  1
  Ni  Ni23  1  0.66457364  0.33329497  0.33531290  1
  Ni  Ni24  1  0.66622310  0.66787119  0.99935229  1
  Ni  Ni25  1  0.83123607  0.83681654  0.16794317  1
  Ni  Ni26  1  0.66541439  0.66729969  0.33324338  1
  Ni  Ni27  1  0.16576684  0.16614008  0.50001078  1
  Ni  Ni28  1  0.99984377  0.00083129  0.66679080  1
  Ni  Ni29  1  0.16659603  0.16756198  0.83407734  1
  Ni  Ni30  1  0.16935098  0.50042478  0.50041516  1
  Ni  Ni31  1  0.00005242  0.33282015  0.66629151  1
  Ni  Ni32  1  0.16718122  0.49643140  0.83087666  1
  Ni  Ni33  1  0.16664732  0.83355063  0.50119759  1
  Ni  Ni34  1  0.00132169  0.66737152  0.66606649  1
  Fe  Fe35  1  0.16668849  0.83550407  0.83105421  1
  Fe  Fe36  1  0.49819455  0.16594715  0.50059886  1
  Ni  Ni37  1  0.33282101  0.00009642  0.66665139  1
  Ni  Ni38  1  0.49982403  0.16637703  0.83175981  1
  Ni  Ni39  1  0.49835157  0.49948728  0.49924936  1
  Ni  Ni40  1  0.33304647  0.33269193  0.66595610  1
  Ni  Ni41  1  0.49933495  0.49793584  0.83376845  1
  Ni  Ni42  1  0.49914777  0.83261409  0.49893085  1
  Ni  Ni43  1  0.33228520  0.66676654  0.66686481  1
  Ni  Ni44  1  0.50084937  0.83583078  0.83347718  1
  Ni  Ni45  1  0.83282899  0.16545220  0.50136072  1
  Ni  Ni46  1  0.66639998  0.00139780  0.66557538  1
  Ni  Ni47  1  0.83351221  0.16615769  0.83312578  1
  Fe  Fe48  1  0.83384914  0.50113077  0.50071256  1
  Ni  Ni49  1  0.66642870  0.33156356  0.66620497  1
  Ni  Ni50  1  0.83390896  0.49794330  0.83222258  1
  Ni  Ni51  1  0.83385290  0.83631078  0.49841448  1
  Cr  Cr52  1  0.66603792  0.66702074  0.66802800  1
  Ni  Ni53  1  0.83245294  0.83614494  0.83372799  1
" 