116,Ni10Fe10Cr80_4,-237.002285098981, 181.108818004078,Ni10Fe10Cr80,"# generated using pymatgen
 data_Cr6Fe5Ni43
_symmetry_space_group_name_H-M   'P 1'
_cell_length_a   7.46704761
_cell_length_b   7.46704761
_cell_length_c   10.56000000
_cell_angle_alpha   90.00000000
_cell_angle_beta   90.00000000
_cell_angle_gamma   90.00000000
_symmetry_Int_Tables_number   1
_chemical_formula_structural   Cr6Fe5Ni43
_chemical_formula_sum   'Cr6 Fe5 Ni43'
_cell_volume   588.79180800
_cell_formula_units_Z   1
loop_
 _symmetry_equiv_pos_site_id
 _symmetry_equiv_pos_as_xyz
  1  'x, y, z'
loop_
 _atom_site_type_symbol
 _atom_site_label
 _atom_site_symmetry_multiplicity
 _atom_site_fract_x
 _atom_site_fract_y
 _atom_site_fract_z
 _atom_site_occupancy
  Ni  Ni0  1  0.99790637  0.00065335  0.99909767  1
  Ni  Ni1  1  0.16655736  0.16489346  0.16427155  1
  Ni  Ni2  1  0.99870782  0.99861842  0.33406372  1
  Fe  Fe3  1  0.99651364  0.33268871  0.99895161  1
  Cr  Cr4  1  0.16506825  0.50183957  0.16365061  1
  Cr  Cr5  1  0.99898627  0.33224837  0.33285309  1
  Ni  Ni6  1  0.99657448  0.67036000  0.99856766  1
  Cr  Cr7  1  0.16680835  0.83445133  0.16512839  1
  Ni  Ni8  1  0.99866183  0.66864679  0.33519031  1
  Fe  Fe9  1  0.33615230  0.99952597  0.99852518  1
  Ni  Ni10  1  0.50152510  0.16543513  0.16622335  1
  Ni  Ni11  1  0.33345802  0.99787705  0.33196090  1
  Ni  Ni12  1  0.33580443  0.33187964  0.99992751  1
  Ni  Ni13  1  0.50202082  0.50062507  0.16654218  1
  Cr  Cr14  1  0.33591074  0.33342197  0.33399482  1
  Ni  Ni15  1  0.33618686  0.66556253  0.99849142  1
  Ni  Ni16  1  0.50202313  0.83295193  0.16707833  1
  Ni  Ni17  1  0.33395514  0.66799393  0.33483719  1
  Ni  Ni18  1  0.66880963  0.99978359  0.99970919  1
  Ni  Ni19  1  0.83209280  0.16618011  0.16617514  1
  Ni  Ni20  1  0.66768402  0.00009931  0.33257244  1
  Ni  Ni21  1  0.66452306  0.33291752  0.00008784  1
  Ni  Ni22  1  0.82995619  0.50122185  0.16552231  1
  Ni  Ni23  1  0.66790805  0.33352959  0.33240430  1
  Ni  Ni24  1  0.66658537  0.66712774  0.00059905  1
  Ni  Ni25  1  0.83224493  0.83351281  0.16807467  1
  Fe  Fe26  1  0.66626849  0.66716553  0.33366481  1
  Ni  Ni27  1  0.16556660  0.16200883  0.50198284  1
  Ni  Ni28  1  0.99980453  0.99996381  0.66671241  1
  Ni  Ni29  1  0.16652300  0.16488790  0.83356603  1
  Fe  Fe30  1  0.16702366  0.50056272  0.50226461  1
  Ni  Ni31  1  0.99922060  0.33232776  0.66686154  1
  Cr  Cr32  1  0.16516693  0.50119485  0.83283486  1
  Ni  Ni33  1  0.16669148  0.83319145  0.50032480  1
  Ni  Ni34  1  0.99890856  0.66813934  0.66602164  1
  Ni  Ni35  1  0.16655243  0.83474515  0.83357578  1
  Cr  Cr36  1  0.50301568  0.16432964  0.50252460  1
  Ni  Ni37  1  0.33232959  0.99835865  0.66905050  1
  Ni  Ni38  1  0.50064757  0.16634709  0.83244517  1
  Ni  Ni39  1  0.50312895  0.50244021  0.50133698  1
  Ni  Ni40  1  0.33368006  0.33302568  0.66652743  1
  Ni  Ni41  1  0.50147650  0.49990979  0.83262092  1
  Ni  Ni42  1  0.49760354  0.83168650  0.50000185  1
  Ni  Ni43  1  0.33406560  0.66718683  0.66613724  1
  Ni  Ni44  1  0.50079564  0.83276994  0.83294147  1
  Ni  Ni45  1  0.83525769  0.16800994  0.50103447  1
  Ni  Ni46  1  0.66794705  0.99921346  0.66815306  1
  Ni  Ni47  1  0.83277912  0.16695437  0.83241408  1
  Ni  Ni48  1  0.83282372  0.50053371  0.50117017  1
  Ni  Ni49  1  0.66771795  0.33453587  0.66799976  1
  Ni  Ni50  1  0.83052270  0.50085247  0.83359422  1
  Fe  Fe51  1  0.83203536  0.83505416  0.50079046  1
  Ni  Ni52  1  0.66632637  0.66718177  0.66680221  1
  Ni  Ni53  1  0.83349569  0.83337684  0.83214566  1
" 