404,Ni10Fe10Cr80_10,-236.859443560801, 181.67568325399,Ni10Fe10Cr80,"# generated using pymatgen
 data_Cr6Fe5Ni43
_symmetry_space_group_name_H-M   'P 1'
_cell_length_a   7.46704761
_cell_length_b   7.46704761
_cell_length_c   10.56000000
_cell_angle_alpha   90.00000000
_cell_angle_beta   90.00000000
_cell_angle_gamma   90.00000000
_symmetry_Int_Tables_number   1
_chemical_formula_structural   Cr6Fe5Ni43
_chemical_formula_sum   'Cr6 Fe5 Ni43'
_cell_volume   588.79180800
_cell_formula_units_Z   1
loop_
 _symmetry_equiv_pos_site_id
 _symmetry_equiv_pos_as_xyz
  1  'x, y, z'
loop_
 _atom_site_type_symbol
 _atom_site_label
 _atom_site_symmetry_multiplicity
 _atom_site_fract_x
 _atom_site_fract_y
 _atom_site_fract_z
 _atom_site_occupancy
  Ni  Ni0  1  0.00093364  0.99994814  0.99967104  1
  Ni  Ni1  1  0.16723741  0.16653966  0.16706564  1
  Fe  Fe2  1  0.00036646  0.99979526  0.33094621  1
  Ni  Ni3  1  0.00207692  0.33049798  0.99959655  1
  Ni  Ni4  1  0.16814111  0.49965033  0.16612586  1
  Ni  Ni5  1  0.00333498  0.33362514  0.33327458  1
  Ni  Ni6  1  0.00184673  0.66903567  0.99934482  1
  Ni  Ni7  1  0.16542864  0.83352545  0.16622000  1
  Ni  Ni8  1  0.00020568  0.66613083  0.33346033  1
  Ni  Ni9  1  0.33147430  0.00095482  0.99817153  1
  Ni  Ni10  1  0.49839226  0.16695255  0.16563699  1
  Ni  Ni11  1  0.33402040  0.00211718  0.33419141  1
  Ni  Ni12  1  0.33339695  0.33238807  0.99936637  1
  Ni  Ni13  1  0.49715348  0.49897155  0.16557732  1
  Ni  Ni14  1  0.33094885  0.33262529  0.33422982  1
  Ni  Ni15  1  0.33220009  0.66652816  0.99884592  1
  Cr  Cr16  1  0.49835018  0.83254083  0.16656584  1
  Ni  Ni17  1  0.33241623  0.66589535  0.33324390  1
  Fe  Fe18  1  0.66702907  0.99994757  0.99902218  1
  Ni  Ni19  1  0.83425404  0.16465124  0.16481982  1
  Ni  Ni20  1  0.66576054  0.99897456  0.33270498  1
  Ni  Ni21  1  0.66461683  0.33075863  0.99943003  1
  Cr  Cr22  1  0.83363061  0.50055875  0.16470505  1
  Cr  Cr23  1  0.66478614  0.33341532  0.33353415  1
  Ni  Ni24  1  0.66541140  0.66701210  0.99837593  1
  Ni  Ni25  1  0.83441179  0.83442617  0.16671614  1
  Ni  Ni26  1  0.66696910  0.66943262  0.33637600  1
  Ni  Ni27  1  0.16910569  0.16929270  0.50070340  1
  Fe  Fe28  1  0.99816482  0.99850728  0.66934021  1
  Ni  Ni29  1  0.16679649  0.16648836  0.83235435  1
  Ni  Ni30  1  0.16671605  0.49940127  0.50031309  1
  Ni  Ni31  1  0.00232415  0.33263545  0.66710600  1
  Ni  Ni32  1  0.16836644  0.50004208  0.83386019  1
  Cr  Cr33  1  0.16707459  0.83487507  0.49950931  1
  Ni  Ni34  1  0.00093244  0.66592645  0.66718180  1
  Ni  Ni35  1  0.16688062  0.83346636  0.83387344  1
  Ni  Ni36  1  0.49849030  0.16599972  0.50114114  1
  Fe  Fe37  1  0.33452153  0.00062633  0.66785458  1
  Ni  Ni38  1  0.49986250  0.16669934  0.83335219  1
  Ni  Ni39  1  0.49920469  0.50159112  0.50091377  1
  Fe  Fe40  1  0.33489145  0.33582911  0.66710289  1
  Ni  Ni41  1  0.49905908  0.50052008  0.83365286  1
  Ni  Ni42  1  0.50115580  0.83400017  0.50014374  1
  Ni  Ni43  1  0.33345690  0.66777735  0.66799841  1
  Ni  Ni44  1  0.49933027  0.83346803  0.83307937  1
  Cr  Cr45  1  0.83541436  0.16552056  0.50064588  1
  Ni  Ni46  1  0.66502225  0.99954544  0.66823052  1
  Ni  Ni47  1  0.83342664  0.16479474  0.83415611  1
  Ni  Ni48  1  0.83463628  0.50162664  0.50147118  1
  Ni  Ni49  1  0.66673457  0.33202987  0.66671983  1
  Cr  Cr50  1  0.83355919  0.49875092  0.83340425  1
  Ni  Ni51  1  0.83151528  0.83146281  0.49999408  1
  Ni  Ni52  1  0.66562201  0.66827691  0.66522188  1
  Ni  Ni53  1  0.83294181  0.83394661  0.83345711  1
" 