328,Ni10Fe10Cr80_5,-236.73642423517, 179.967059449351,Ni10Fe10Cr80,"# generated using pymatgen
 data_Cr6Fe5Ni43
_symmetry_space_group_name_H-M   'P 1'
_cell_length_a   7.46704761
_cell_length_b   7.46704761
_cell_length_c   10.56000000
_cell_angle_alpha   90.00000000
_cell_angle_beta   90.00000000
_cell_angle_gamma   90.00000000
_symmetry_Int_Tables_number   1
_chemical_formula_structural   Cr6Fe5Ni43
_chemical_formula_sum   'Cr6 Fe5 Ni43'
_cell_volume   588.79180800
_cell_formula_units_Z   1
loop_
 _symmetry_equiv_pos_site_id
 _symmetry_equiv_pos_as_xyz
  1  'x, y, z'
loop_
 _atom_site_type_symbol
 _atom_site_label
 _atom_site_symmetry_multiplicity
 _atom_site_fract_x
 _atom_site_fract_y
 _atom_site_fract_z
 _atom_site_occupancy
  Ni  Ni0  1  0.99884287  0.00093121  0.00020234  1
  Ni  Ni1  1  0.16642165  0.16646390  0.16588767  1
  Ni  Ni2  1  0.99886921  0.00046911  0.33309522  1
  Ni  Ni3  1  0.00090770  0.33148019  0.99995233  1
  Fe  Fe4  1  0.16645488  0.49697868  0.16805101  1
  Ni  Ni5  1  0.00207298  0.33205912  0.33454254  1
  Ni  Ni6  1  0.99708146  0.66751999  0.00030571  1
  Fe  Fe7  1  0.16495756  0.83564695  0.16756534  1
  Ni  Ni8  1  0.99991867  0.66672162  0.33343166  1
  Ni  Ni9  1  0.33347508  0.00270363  0.99934314  1
  Ni  Ni10  1  0.49932386  0.16828950  0.16658097  1
  Ni  Ni11  1  0.33177916  0.00317793  0.33315371  1
  Ni  Ni12  1  0.33380273  0.33067090  0.00079804  1
  Ni  Ni13  1  0.50029113  0.49850090  0.16758071  1
  Ni  Ni14  1  0.33309868  0.33346591  0.33312484  1
  Cr  Cr15  1  0.33308539  0.66451274  0.00172901  1
  Cr  Cr16  1  0.50195811  0.83484134  0.16930048  1
  Ni  Ni17  1  0.33213570  0.66362250  0.33303938  1
  Ni  Ni18  1  0.66765892  0.00063169  0.99988090  1
  Ni  Ni19  1  0.83473601  0.16508076  0.16685636  1
  Ni  Ni20  1  0.66898650  0.00183158  0.33309610  1
  Fe  Fe21  1  0.66626366  0.33231426  0.99871050  1
  Cr  Cr22  1  0.83327639  0.49901880  0.16620295  1
  Fe  Fe23  1  0.66642256  0.33291711  0.33476329  1
  Ni  Ni24  1  0.66749404  0.66773667  0.99784949  1
  Ni  Ni25  1  0.83487287  0.83369146  0.16615212  1
  Ni  Ni26  1  0.66787512  0.66651245  0.33477601  1
  Ni  Ni27  1  0.16648720  0.16647969  0.50100772  1
  Ni  Ni28  1  0.00168558  0.00044023  0.66640534  1
  Ni  Ni29  1  0.16628008  0.16374528  0.83316389  1
  Ni  Ni30  1  0.16619893  0.49991412  0.49943606  1
  Ni  Ni31  1  0.99903649  0.33228378  0.66543540  1
  Cr  Cr32  1  0.16378862  0.49743723  0.83202532  1
  Ni  Ni33  1  0.16494717  0.83366483  0.49896039  1
  Ni  Ni34  1  0.99913278  0.66736926  0.66552131  1
  Ni  Ni35  1  0.16632369  0.83494325  0.83346111  1
  Ni  Ni36  1  0.49876852  0.16914166  0.49843772  1
  Ni  Ni37  1  0.33155677  0.00122185  0.66782772  1
  Ni  Ni38  1  0.49941797  0.16656306  0.83470645  1
  Ni  Ni39  1  0.50018736  0.49938398  0.50017506  1
  Ni  Ni40  1  0.33421019  0.33244252  0.66589745  1
  Ni  Ni41  1  0.50207416  0.49978078  0.83261727  1
  Cr  Cr42  1  0.49798516  0.83365775  0.49877904  1
  Ni  Ni43  1  0.33306379  0.66603904  0.66624295  1
  Ni  Ni44  1  0.49856617  0.83328292  0.83350974  1
  Ni  Ni45  1  0.83529045  0.16792313  0.49820266  1
  Cr  Cr46  1  0.66855291  0.00184955  0.66671486  1
  Ni  Ni47  1  0.83508118  0.16908559  0.83482205  1
  Ni  Ni48  1  0.83414740  0.50007387  0.50060303  1
  Ni  Ni49  1  0.66659716  0.33481391  0.66643939  1
  Ni  Ni50  1  0.83165996  0.50001069  0.83311011  1
  Ni  Ni51  1  0.83571150  0.83230939  0.49898619  1
  Ni  Ni52  1  0.66723385  0.66470490  0.66763998  1
  Fe  Fe53  1  0.83395205  0.83364688  0.83390001  1
" 