252,Ni10Fe80Cr10_2,-226.029780831684, 153.8632445346,Ni10Fe80Cr10,"# generated using pymatgen
 data_Cr6Fe43Ni5
_symmetry_space_group_name_H-M   'P 1'
_cell_length_a   7.46704761
_cell_length_b   7.46704761
_cell_length_c   10.56000000
_cell_angle_alpha   90.00000000
_cell_angle_beta   90.00000000
_cell_angle_gamma   90.00000000
_symmetry_Int_Tables_number   1
_chemical_formula_structural   Cr6Fe43Ni5
_chemical_formula_sum   'Cr6 Fe43 Ni5'
_cell_volume   588.79180800
_cell_formula_units_Z   1
loop_
 _symmetry_equiv_pos_site_id
 _symmetry_equiv_pos_as_xyz
  1  'x, y, z'
loop_
 _atom_site_type_symbol
 _atom_site_label
 _atom_site_symmetry_multiplicity
 _atom_site_fract_x
 _atom_site_fract_y
 _atom_site_fract_z
 _atom_site_occupancy
  Fe  Fe0  1  0.99907970  0.99943444  0.00149725  1
  Fe  Fe1  1  0.16566078  0.16590706  0.16753454  1
  Fe  Fe2  1  0.00131737  0.99805699  0.33220169  1
  Fe  Fe3  1  0.99848127  0.33256164  0.00112460  1
  Fe  Fe4  1  0.16641455  0.49849748  0.16547622  1
  Fe  Fe5  1  0.00086260  0.33611013  0.33254796  1
  Fe  Fe6  1  0.99938954  0.66708684  0.00208319  1
  Fe  Fe7  1  0.16673827  0.83477588  0.16589460  1
  Fe  Fe8  1  0.99959448  0.66440326  0.33316763  1
  Fe  Fe9  1  0.33396450  0.00060653  0.00142598  1
  Ni  Ni10  1  0.49729846  0.16692629  0.16730129  1
  Fe  Fe11  1  0.33456955  0.00122055  0.33283459  1
  Fe  Fe12  1  0.33398058  0.33276030  0.00263448  1
  Fe  Fe13  1  0.50048991  0.50076458  0.16557484  1
  Ni  Ni14  1  0.33111080  0.33236348  0.33259213  1
  Fe  Fe15  1  0.33433920  0.66750713  0.00168901  1
  Fe  Fe16  1  0.50296723  0.83468967  0.16640326  1
  Cr  Cr17  1  0.33550318  0.66556482  0.33186287  1
  Fe  Fe18  1  0.66643153  0.00030155  0.00296157  1
  Fe  Fe19  1  0.83248264  0.16414791  0.16707507  1
  Fe  Fe20  1  0.66357461  0.99833912  0.33069636  1
  Fe  Fe21  1  0.66606560  0.33276192  0.00228876  1
  Fe  Fe22  1  0.83347570  0.50134382  0.16701706  1
  Cr  Cr23  1  0.66457039  0.33628547  0.33081160  1
  Fe  Fe24  1  0.66747270  0.66676043  0.00295263  1
  Ni  Ni25  1  0.83446231  0.83219954  0.16968185  1
  Ni  Ni26  1  0.66898131  0.66792536  0.33345558  1
  Fe  Fe27  1  0.16661138  0.16811030  0.49822743  1
  Cr  Cr28  1  0.00133950  0.00064931  0.66806457  1
  Fe  Fe29  1  0.16769106  0.16600573  0.83533135  1
  Fe  Fe30  1  0.16678422  0.49813854  0.50019042  1
  Fe  Fe31  1  0.99894981  0.33436742  0.66574900  1
  Cr  Cr32  1  0.16739200  0.50010555  0.83292117  1
  Fe  Fe33  1  0.16635720  0.83278905  0.49939791  1
  Fe  Fe34  1  0.00035379  0.66553734  0.66486314  1
  Fe  Fe35  1  0.16857753  0.83401210  0.83523755  1
  Fe  Fe36  1  0.49697683  0.16766562  0.49806390  1
  Fe  Fe37  1  0.33525467  0.00021663  0.66640587  1
  Fe  Fe38  1  0.50016583  0.16711755  0.83551833  1
  Fe  Fe39  1  0.50168932  0.49964216  0.49973576  1
  Fe  Fe40  1  0.33422268  0.33156306  0.66510684  1
  Fe  Fe41  1  0.50247363  0.50080192  0.83386064  1
  Fe  Fe42  1  0.50311324  0.83366052  0.49954561  1
  Fe  Fe43  1  0.33417836  0.66821591  0.66508432  1
  Fe  Fe44  1  0.49760288  0.83261287  0.83398482  1
  Cr  Cr45  1  0.83073631  0.16553065  0.49680896  1
  Fe  Fe46  1  0.66342904  0.00117846  0.66651018  1
  Fe  Fe47  1  0.83234715  0.16923091  0.83471301  1
  Ni  Ni48  1  0.83515013  0.50171022  0.50061144  1
  Fe  Fe49  1  0.66654943  0.33367682  0.66602916  1
  Fe  Fe50  1  0.83172327  0.49852180  0.83257401  1
  Fe  Fe51  1  0.83343141  0.83108742  0.49803584  1
  Fe  Fe52  1  0.66646289  0.66604337  0.66390133  1
  Cr  Cr53  1  0.83115766  0.83250658  0.83274080  1
" 