288,Ni10Fe80Cr10_9,-226.249319051998, 155.425600885456,Ni10Fe80Cr10,"# generated using pymatgen
 data_Cr6Fe43Ni5
_symmetry_space_group_name_H-M   'P 1'
_cell_length_a   7.46704761
_cell_length_b   7.46704761
_cell_length_c   10.56000000
_cell_angle_alpha   90.00000000
_cell_angle_beta   90.00000000
_cell_angle_gamma   90.00000000
_symmetry_Int_Tables_number   1
_chemical_formula_structural   Cr6Fe43Ni5
_chemical_formula_sum   'Cr6 Fe43 Ni5'
_cell_volume   588.79180800
_cell_formula_units_Z   1
loop_
 _symmetry_equiv_pos_site_id
 _symmetry_equiv_pos_as_xyz
  1  'x, y, z'
loop_
 _atom_site_type_symbol
 _atom_site_label
 _atom_site_symmetry_multiplicity
 _atom_site_fract_x
 _atom_site_fract_y
 _atom_site_fract_z
 _atom_site_occupancy
  Ni  Ni0  1  0.99903304  0.99681411  0.99947782  1
  Cr  Cr1  1  0.16562081  0.16668034  0.16530522  1
  Fe  Fe2  1  0.99863804  0.99820221  0.33197925  1
  Fe  Fe3  1  0.99692944  0.33337308  0.00043740  1
  Fe  Fe4  1  0.16472311  0.50149373  0.16607637  1
  Fe  Fe5  1  0.99821244  0.33482494  0.33368342  1
  Fe  Fe6  1  0.99979560  0.66571473  0.99936175  1
  Fe  Fe7  1  0.16531255  0.83261111  0.16567728  1
  Fe  Fe8  1  0.99958670  0.66599657  0.33403723  1
  Fe  Fe9  1  0.33434472  0.99984685  0.00011896  1
  Fe  Fe10  1  0.50227368  0.16493733  0.16600176  1
  Fe  Fe11  1  0.33506660  0.99758703  0.33338660  1
  Fe  Fe12  1  0.33203581  0.33518875  0.99904421  1
  Fe  Fe13  1  0.50062012  0.50203765  0.16536648  1
  Cr  Cr14  1  0.33713111  0.33537340  0.33288647  1
  Fe  Fe15  1  0.33316372  0.66594017  0.00054171  1
  Fe  Fe16  1  0.50119127  0.83456581  0.16600683  1
  Fe  Fe17  1  0.33314869  0.66905305  0.33294924  1
  Fe  Fe18  1  0.66919747  0.00045188  0.00116551  1
  Ni  Ni19  1  0.83459114  0.16624251  0.16791305  1
  Fe  Fe20  1  0.66639548  0.00103548  0.33298688  1
  Cr  Cr21  1  0.66403559  0.33310160  0.99993540  1
  Fe  Fe22  1  0.83416596  0.49956827  0.16857648  1
  Fe  Fe23  1  0.66958528  0.33383237  0.33257968  1
  Fe  Fe24  1  0.66986497  0.66711451  0.00075009  1
  Fe  Fe25  1  0.83411224  0.83442311  0.16648008  1
  Fe  Fe26  1  0.66575769  0.66650342  0.33362034  1
  Cr  Cr27  1  0.16579681  0.16490124  0.49980139  1
  Fe  Fe28  1  0.99778654  0.99804593  0.66769684  1
  Cr  Cr29  1  0.16355210  0.16682636  0.83450820  1
  Fe  Fe30  1  0.16477762  0.50107985  0.50047713  1
  Fe  Fe31  1  0.99679838  0.33483476  0.66560874  1
  Fe  Fe32  1  0.16863352  0.50096721  0.83293766  1
  Fe  Fe33  1  0.16562693  0.83033687  0.50027407  1
  Fe  Fe34  1  0.99946631  0.66580859  0.66593638  1
  Fe  Fe35  1  0.16814276  0.83170740  0.83388245  1
  Fe  Fe36  1  0.50294892  0.16733514  0.50200712  1
  Fe  Fe37  1  0.33426113  0.99901206  0.66689688  1
  Ni  Ni38  1  0.49754114  0.16718996  0.83314618  1
  Fe  Fe39  1  0.50120930  0.50097838  0.50202122  1
  Fe  Fe40  1  0.33444514  0.33437267  0.66745483  1
  Ni  Ni41  1  0.50062196  0.50103800  0.83251724  1
  Fe  Fe42  1  0.50101435  0.83302995  0.50053901  1
  Fe  Fe43  1  0.33350467  0.66595855  0.66657336  1
  Cr  Cr44  1  0.50386690  0.83233654  0.83459985  1
  Fe  Fe45  1  0.83167542  0.16814437  0.49869697  1
  Fe  Fe46  1  0.66710108  0.00162790  0.66658709  1
  Fe  Fe47  1  0.82916528  0.16498232  0.83426739  1
  Ni  Ni48  1  0.83161628  0.50122213  0.49900937  1
  Fe  Fe49  1  0.66613511  0.33392933  0.66782154  1
  Fe  Fe50  1  0.83228982  0.49952621  0.83139679  1
  Fe  Fe51  1  0.83345582  0.83350735  0.49982079  1
  Fe  Fe52  1  0.66845418  0.66574357  0.66576751  1
  Fe  Fe53  1  0.83557924  0.83304333  0.83340852  1
" 