83,Ni10Fe10Cr80_1,-236.906813299031, 179.915550235917,Ni10Fe10Cr80,"# generated using pymatgen
 data_Cr6Fe5Ni43
_symmetry_space_group_name_H-M   'P 1'
_cell_length_a   7.46704761
_cell_length_b   7.46704761
_cell_length_c   10.56000000
_cell_angle_alpha   90.00000000
_cell_angle_beta   90.00000000
_cell_angle_gamma   90.00000000
_symmetry_Int_Tables_number   1
_chemical_formula_structural   Cr6Fe5Ni43
_chemical_formula_sum   'Cr6 Fe5 Ni43'
_cell_volume   588.79180800
_cell_formula_units_Z   1
loop_
 _symmetry_equiv_pos_site_id
 _symmetry_equiv_pos_as_xyz
  1  'x, y, z'
loop_
 _atom_site_type_symbol
 _atom_site_label
 _atom_site_symmetry_multiplicity
 _atom_site_fract_x
 _atom_site_fract_y
 _atom_site_fract_z
 _atom_site_occupancy
  Fe  Fe0  1  0.99934589  0.00186098  0.99794922  1
  Fe  Fe1  1  0.16725703  0.16712164  0.16592811  1
  Fe  Fe2  1  0.00057805  0.00130340  0.33517246  1
  Ni  Ni3  1  0.00087164  0.33467215  0.99924085  1
  Ni  Ni4  1  0.16751000  0.50049559  0.16631584  1
  Ni  Ni5  1  0.00174246  0.33237069  0.33305612  1
  Ni  Ni6  1  0.00194623  0.66662161  0.99798707  1
  Ni  Ni7  1  0.16638109  0.83399988  0.16539434  1
  Ni  Ni8  1  0.00332326  0.66731966  0.33485580  1
  Ni  Ni9  1  0.33270842  0.00086492  0.99869568  1
  Ni  Ni10  1  0.50025056  0.16732507  0.16654293  1
  Ni  Ni11  1  0.33309230  0.00040012  0.33407580  1
  Ni  Ni12  1  0.33274730  0.33118251  0.00032084  1
  Ni  Ni13  1  0.49806461  0.49684159  0.16625131  1
  Ni  Ni14  1  0.33144415  0.33154856  0.33176075  1
  Fe  Fe15  1  0.33369669  0.66438792  0.99883786  1
  Cr  Cr16  1  0.49865597  0.83379916  0.16564844  1
  Ni  Ni17  1  0.33029278  0.66737422  0.33159140  1
  Ni  Ni18  1  0.66530516  0.00155508  0.99797232  1
  Ni  Ni19  1  0.83320521  0.16730734  0.16561663  1
  Ni  Ni20  1  0.66597901  0.00221726  0.33508212  1
  Ni  Ni21  1  0.66632526  0.33195232  0.99974277  1
  Cr  Cr22  1  0.83305090  0.49955961  0.16789476  1
  Ni  Ni23  1  0.66631820  0.32911772  0.33161246  1
  Ni  Ni24  1  0.66846330  0.66647731  0.99760916  1
  Cr  Cr25  1  0.83561502  0.83621326  0.16720491  1
  Ni  Ni26  1  0.66584023  0.66864573  0.33420621  1
  Ni  Ni27  1  0.16709015  0.16666784  0.50012265  1
  Ni  Ni28  1  0.00034485  0.99998687  0.66707126  1
  Ni  Ni29  1  0.16745190  0.16666750  0.83359938  1
  Ni  Ni30  1  0.16574170  0.49891328  0.49966988  1
  Ni  Ni31  1  0.00133328  0.33268409  0.66783627  1
  Ni  Ni32  1  0.16549147  0.49824406  0.83378394  1
  Ni  Ni33  1  0.16615434  0.83487257  0.49972720  1
  Ni  Ni34  1  0.99948754  0.66749845  0.66737514  1
  Ni  Ni35  1  0.16542372  0.83497980  0.83473002  1
  Ni  Ni36  1  0.49943547  0.16457385  0.50040670  1
  Ni  Ni37  1  0.33338376  0.00164940  0.66682523  1
  Ni  Ni38  1  0.49872568  0.16636697  0.83299032  1
  Cr  Cr39  1  0.49838277  0.49753080  0.49844488  1
  Ni  Ni40  1  0.33201302  0.33045769  0.66760231  1
  Ni  Ni41  1  0.50177090  0.49761487  0.83534369  1
  Ni  Ni42  1  0.50024154  0.83591403  0.49942594  1
  Cr  Cr43  1  0.33239548  0.66786316  0.66893909  1
  Ni  Ni44  1  0.50127669  0.83503553  0.83447484  1
  Ni  Ni45  1  0.83355891  0.16528425  0.50103522  1
  Ni  Ni46  1  0.66639727  0.99969991  0.66677324  1
  Fe  Fe47  1  0.83325253  0.16711731  0.83311374  1
  Cr  Cr48  1  0.83444988  0.49955127  0.50035586  1
  Ni  Ni49  1  0.66673840  0.33109028  0.66903591  1
  Ni  Ni50  1  0.83390090  0.50061788  0.83314460  1
  Ni  Ni51  1  0.83362537  0.83518518  0.50012099  1
  Ni  Ni52  1  0.66834775  0.66865597  0.66845798  1
  Ni  Ni53  1  0.83357400  0.83274188  0.83302757  1
" 