330,Ni10Fe10Cr80_13,-236.959002624269, 180.964676401039,Ni10Fe10Cr80,"# generated using pymatgen
 data_Cr6Fe5Ni43
_symmetry_space_group_name_H-M   'P 1'
_cell_length_a   7.46704761
_cell_length_b   7.46704761
_cell_length_c   10.56000000
_cell_angle_alpha   90.00000000
_cell_angle_beta   90.00000000
_cell_angle_gamma   90.00000000
_symmetry_Int_Tables_number   1
_chemical_formula_structural   Cr6Fe5Ni43
_chemical_formula_sum   'Cr6 Fe5 Ni43'
_cell_volume   588.79180800
_cell_formula_units_Z   1
loop_
 _symmetry_equiv_pos_site_id
 _symmetry_equiv_pos_as_xyz
  1  'x, y, z'
loop_
 _atom_site_type_symbol
 _atom_site_label
 _atom_site_symmetry_multiplicity
 _atom_site_fract_x
 _atom_site_fract_y
 _atom_site_fract_z
 _atom_site_occupancy
  Fe  Fe0  1  0.99876321  0.99972828  0.00065674  1
  Ni  Ni1  1  0.16656835  0.16698970  0.16773794  1
  Ni  Ni2  1  0.00097045  0.00023519  0.33176603  1
  Ni  Ni3  1  0.99821573  0.33229385  0.99996875  1
  Cr  Cr4  1  0.16515781  0.50064176  0.16672943  1
  Ni  Ni5  1  0.99735475  0.33160465  0.33380426  1
  Ni  Ni6  1  0.99836482  0.66711393  0.00020156  1
  Ni  Ni7  1  0.16573378  0.83386245  0.16706694  1
  Ni  Ni8  1  0.99879125  0.66757660  0.33365391  1
  Cr  Cr9  1  0.33345295  0.99932187  0.99945866  1
  Ni  Ni10  1  0.50086025  0.16716274  0.16765537  1
  Ni  Ni11  1  0.33243635  0.99865897  0.33284818  1
  Ni  Ni12  1  0.33432645  0.33261279  0.00062389  1
  Fe  Fe13  1  0.50143030  0.50115208  0.16557861  1
  Fe  Fe14  1  0.33319748  0.33206379  0.33242783  1
  Ni  Ni15  1  0.33450117  0.66783729  0.99917259  1
  Ni  Ni16  1  0.50148432  0.83451102  0.16765394  1
  Ni  Ni17  1  0.33406004  0.67186675  0.33251219  1
  Ni  Ni18  1  0.66685789  0.00028509  0.00053650  1
  Ni  Ni19  1  0.83257867  0.16646066  0.16629861  1
  Ni  Ni20  1  0.66689950  0.99934814  0.33192513  1
  Ni  Ni21  1  0.66768091  0.33330098  0.00018379  1
  Ni  Ni22  1  0.83262480  0.50012972  0.16663348  1
  Ni  Ni23  1  0.66999274  0.33350682  0.33073329  1
  Ni  Ni24  1  0.66719223  0.66683209  0.00031801  1
  Ni  Ni25  1  0.83260876  0.83281688  0.16646681  1
  Ni  Ni26  1  0.66732214  0.66689165  0.33208312  1
  Ni  Ni27  1  0.16566908  0.16487256  0.49978870  1
  Ni  Ni28  1  0.00025692  0.00010521  0.66724583  1
  Ni  Ni29  1  0.16673245  0.16669263  0.83267389  1
  Cr  Cr30  1  0.16444570  0.50006637  0.50134892  1
  Ni  Ni31  1  0.99738570  0.33093165  0.66617605  1
  Cr  Cr32  1  0.16542305  0.49998848  0.83232899  1
  Ni  Ni33  1  0.16555080  0.83554777  0.50022695  1
  Ni  Ni34  1  0.99753763  0.66830395  0.66611688  1
  Ni  Ni35  1  0.16448943  0.83455536  0.83238386  1
  Cr  Cr36  1  0.50088223  0.16332416  0.50011994  1
  Ni  Ni37  1  0.33233575  0.99903752  0.66733325  1
  Ni  Ni38  1  0.50060671  0.16718345  0.83256764  1
  Cr  Cr39  1  0.50223070  0.50044335  0.50013062  1
  Ni  Ni40  1  0.33347260  0.33091675  0.66840201  1
  Ni  Ni41  1  0.50201386  0.49904709  0.83427876  1
  Ni  Ni42  1  0.50147747  0.83377331  0.50047768  1
  Ni  Ni43  1  0.33445856  0.67007917  0.66823858  1
  Ni  Ni44  1  0.50228315  0.83367022  0.83164533  1
  Fe  Fe45  1  0.83466718  0.16501191  0.49904779  1
  Ni  Ni46  1  0.66776475  0.99886891  0.66751771  1
  Fe  Fe47  1  0.83277009  0.16586651  0.83426744  1
  Ni  Ni48  1  0.83334977  0.50056448  0.49993600  1
  Ni  Ni49  1  0.66908784  0.33313259  0.66892820  1
  Ni  Ni50  1  0.83201390  0.50077502  0.83322082  1
  Ni  Ni51  1  0.83311526  0.83288240  0.49906552  1
  Ni  Ni52  1  0.66786694  0.66685554  0.66747184  1
  Ni  Ni53  1  0.83268539  0.83269793  0.83436525  1
" 