165,Ni20Fe60Cr20_0,-227.463959483682, 175.562630811528,Ni20Fe60Cr20,"# generated using pymatgen
 data_Cr6Fe16Ni5
_symmetry_space_group_name_H-M   'P 1'
_cell_length_a   7.46704761
_cell_length_b   7.46704761
_cell_length_c   10.56000000
_cell_angle_alpha   90.00000000
_cell_angle_beta   90.00000000
_cell_angle_gamma   90.00000000
_symmetry_Int_Tables_number   1
_chemical_formula_structural   Cr6Fe16Ni5
_chemical_formula_sum   'Cr12 Fe32 Ni10'
_cell_volume   588.79180800
_cell_formula_units_Z   2
loop_
 _symmetry_equiv_pos_site_id
 _symmetry_equiv_pos_as_xyz
  1  'x, y, z'
loop_
 _atom_site_type_symbol
 _atom_site_label
 _atom_site_symmetry_multiplicity
 _atom_site_fract_x
 _atom_site_fract_y
 _atom_site_fract_z
 _atom_site_occupancy
  Cr  Cr0  1  0.00009551  0.99976261  0.99891890  1
  Fe  Fe1  1  0.16809782  0.16419172  0.16680032  1
  Cr  Cr2  1  0.99828027  0.99883270  0.33662728  1
  Fe  Fe3  1  0.99771848  0.33268666  0.99950417  1
  Fe  Fe4  1  0.16736464  0.50088136  0.16652156  1
  Cr  Cr5  1  0.00004867  0.33388045  0.33105302  1
  Cr  Cr6  1  0.99747039  0.66787044  0.00160872  1
  Fe  Fe7  1  0.16956652  0.83382009  0.16726003  1
  Cr  Cr8  1  0.99872283  0.66703717  0.33245451  1
  Fe  Fe9  1  0.33595568  0.99663802  0.99806131  1
  Fe  Fe10  1  0.50257835  0.16329954  0.16805513  1
  Fe  Fe11  1  0.33399114  0.99933934  0.33517489  1
  Cr  Cr12  1  0.33529039  0.33152509  0.00029613  1
  Cr  Cr13  1  0.49890625  0.50027729  0.16872757  1
  Fe  Fe14  1  0.33374901  0.33185255  0.33463122  1
  Fe  Fe15  1  0.33536424  0.66839888  0.99930772  1
  Fe  Fe16  1  0.50217363  0.83405463  0.16646117  1
  Fe  Fe17  1  0.33306059  0.66679641  0.33533800  1
  Fe  Fe18  1  0.66628449  0.99850511  0.99807757  1
  Fe  Fe19  1  0.82983330  0.16540853  0.16507737  1
  Fe  Fe20  1  0.66561686  0.99987345  0.33534113  1
  Fe  Fe21  1  0.66776124  0.33403727  0.99649671  1
  Cr  Cr22  1  0.83024750  0.50045223  0.16351321  1
  Fe  Fe23  1  0.66696834  0.33363478  0.33590454  1
  Ni  Ni24  1  0.66494106  0.66750444  0.99765621  1
  Ni  Ni25  1  0.83088341  0.83696892  0.16714282  1
  Fe  Fe26  1  0.66690143  0.66891604  0.33433045  1
  Fe  Fe27  1  0.16681679  0.16861823  0.50054927  1
  Cr  Cr28  1  0.99915525  0.99681599  0.66486175  1
  Fe  Fe29  1  0.16465801  0.16769641  0.83291954  1
  Ni  Ni30  1  0.16850343  0.49793818  0.49969925  1
  Fe  Fe31  1  0.99862465  0.33378061  0.66583563  1
  Cr  Cr32  1  0.16598487  0.50012893  0.83309722  1
  Fe  Fe33  1  0.16648326  0.82838937  0.50137694  1
  Ni  Ni34  1  0.99861594  0.66383698  0.66518623  1
  Fe  Fe35  1  0.16537946  0.83117538  0.83196228  1
  Fe  Fe36  1  0.50093026  0.16946474  0.49937691  1
  Cr  Cr37  1  0.33414605  0.00270897  0.66894621  1
  Fe  Fe38  1  0.50359201  0.16945690  0.83368992  1
  Fe  Fe39  1  0.50209070  0.50147741  0.50082949  1
  Fe  Fe40  1  0.33407903  0.33616258  0.66576529  1
  Ni  Ni41  1  0.50032409  0.50084230  0.83092394  1
  Fe  Fe42  1  0.49987029  0.83097171  0.49982624  1
  Fe  Fe43  1  0.33289945  0.66648483  0.66541574  1
  Fe  Fe44  1  0.50177035  0.83025791  0.83392536  1
  Fe  Fe45  1  0.83224830  0.17045938  0.50126011  1
  Cr  Cr46  1  0.66680284  0.00061634  0.66742063  1
  Ni  Ni47  1  0.83367361  0.16703472  0.83389496  1
  Ni  Ni48  1  0.83402420  0.50197062  0.50197476  1
  Fe  Fe49  1  0.66841867  0.33596840  0.66758556  1
  Ni  Ni50  1  0.83146709  0.49988945  0.83254873  1
  Ni  Ni51  1  0.83058376  0.83242467  0.50029716  1
  Fe  Fe52  1  0.66862752  0.66620746  0.66781417  1
  Ni  Ni53  1  0.83235806  0.83277585  0.83267504  1
" 