289,Ni20Fe60Cr20_2,-227.491368602049, 182.04893652225,Ni20Fe60Cr20,"# generated using pymatgen
 data_Cr6Fe16Ni5
_symmetry_space_group_name_H-M   'P 1'
_cell_length_a   7.46704761
_cell_length_b   7.46704761
_cell_length_c   10.56000000
_cell_angle_alpha   90.00000000
_cell_angle_beta   90.00000000
_cell_angle_gamma   90.00000000
_symmetry_Int_Tables_number   1
_chemical_formula_structural   Cr6Fe16Ni5
_chemical_formula_sum   'Cr12 Fe32 Ni10'
_cell_volume   588.79180800
_cell_formula_units_Z   2
loop_
 _symmetry_equiv_pos_site_id
 _symmetry_equiv_pos_as_xyz
  1  'x, y, z'
loop_
 _atom_site_type_symbol
 _atom_site_label
 _atom_site_symmetry_multiplicity
 _atom_site_fract_x
 _atom_site_fract_y
 _atom_site_fract_z
 _atom_site_occupancy
  Fe  Fe0  1  0.00178534  0.00125295  0.00119523  1
  Fe  Fe1  1  0.16670045  0.16571751  0.16684487  1
  Ni  Ni2  1  0.00221231  0.99906689  0.33006714  1
  Fe  Fe3  1  0.00117555  0.33157278  0.00008200  1
  Ni  Ni4  1  0.16824948  0.49752282  0.16764540  1
  Fe  Fe5  1  0.99878981  0.32966547  0.33193083  1
  Cr  Cr6  1  0.00111578  0.66434809  0.99842135  1
  Fe  Fe7  1  0.16758233  0.83294266  0.16657374  1
  Cr  Cr8  1  0.00096619  0.66414951  0.33367396  1
  Fe  Fe9  1  0.33348018  0.99856677  0.99970201  1
  Fe  Fe10  1  0.49763137  0.16891040  0.16612858  1
  Ni  Ni11  1  0.33213345  0.99975538  0.33170277  1
  Fe  Fe12  1  0.33149823  0.33354441  0.00263025  1
  Fe  Fe13  1  0.49821568  0.49926475  0.16886328  1
  Fe  Fe14  1  0.33225801  0.33062271  0.33056040  1
  Fe  Fe15  1  0.33205303  0.66765378  0.00117454  1
  Fe  Fe16  1  0.49648468  0.83421679  0.16613017  1
  Fe  Fe17  1  0.33321080  0.66922715  0.33182661  1
  Fe  Fe18  1  0.66600238  0.00127710  0.00232522  1
  Fe  Fe19  1  0.83483549  0.16781921  0.16713543  1
  Cr  Cr20  1  0.66295509  0.00349059  0.33357318  1
  Fe  Fe21  1  0.66867729  0.33165264  0.00348032  1
  Fe  Fe22  1  0.83447087  0.49684551  0.16807193  1
  Ni  Ni23  1  0.66588141  0.33503673  0.33244038  1
  Cr  Cr24  1  0.66609473  0.66615314  0.00340692  1
  Fe  Fe25  1  0.83510724  0.83454979  0.16724587  1
  Fe  Fe26  1  0.66555872  0.66833737  0.33140515  1
  Cr  Cr27  1  0.16547811  0.16468829  0.49789117  1
  Ni  Ni28  1  0.00464113  0.00237065  0.66836999  1
  Fe  Fe29  1  0.16765664  0.16479878  0.83301182  1
  Fe  Fe30  1  0.16519068  0.49950325  0.49934906  1
  Ni  Ni31  1  0.99963317  0.33234402  0.66832687  1
  Fe  Fe32  1  0.16761613  0.49805584  0.83451110  1
  Ni  Ni33  1  0.16809269  0.83469093  0.49915876  1
  Cr  Cr34  1  0.00172030  0.66443828  0.66834036  1
  Ni  Ni35  1  0.16846636  0.83472334  0.83394969  1
  Fe  Fe36  1  0.49864970  0.16524615  0.50029422  1
  Ni  Ni37  1  0.33509726  0.99974624  0.66720470  1
  Cr  Cr38  1  0.50202901  0.16801337  0.83249216  1
  Cr  Cr39  1  0.49710488  0.49856027  0.49692992  1
  Fe  Fe40  1  0.32948370  0.33296776  0.66623178  1
  Cr  Cr41  1  0.49819845  0.49970423  0.83502989  1
  Fe  Fe42  1  0.49589009  0.83578063  0.50041438  1
  Fe  Fe43  1  0.33046614  0.66961707  0.66697236  1
  Ni  Ni44  1  0.49811736  0.83423881  0.83318047  1
  Fe  Fe45  1  0.83490728  0.16911655  0.49959250  1
  Fe  Fe46  1  0.66844165  0.00286274  0.66574873  1
  Fe  Fe47  1  0.83650708  0.16813118  0.83365805  1
  Fe  Fe48  1  0.83442663  0.49699028  0.49909716  1
  Fe  Fe49  1  0.66906702  0.33087176  0.66398425  1
  Fe  Fe50  1  0.83233151  0.49683213  0.83343793  1
  Cr  Cr51  1  0.83684806  0.83766171  0.49912948  1
  Cr  Cr52  1  0.66524333  0.66696312  0.66546602  1
  Cr  Cr53  1  0.83356971  0.83791970  0.83398968  1
" 