141,Ni20Fe40Cr40_5,-231.64980843532, 199.348744602555,Ni20Fe40Cr40,"# generated using pymatgen
 data_Cr4(FeNi)7
_symmetry_space_group_name_H-M   'P 1'
_cell_length_a   7.46704761
_cell_length_b   7.46704761
_cell_length_c   10.56000000
_cell_angle_alpha   90.00000000
_cell_angle_beta   90.00000000
_cell_angle_gamma   90.00000000
_symmetry_Int_Tables_number   1
_chemical_formula_structural   Cr4(FeNi)7
_chemical_formula_sum   'Cr12 Fe21 Ni21'
_cell_volume   588.79180800
_cell_formula_units_Z   3
loop_
 _symmetry_equiv_pos_site_id
 _symmetry_equiv_pos_as_xyz
  1  'x, y, z'
loop_
 _atom_site_type_symbol
 _atom_site_label
 _atom_site_symmetry_multiplicity
 _atom_site_fract_x
 _atom_site_fract_y
 _atom_site_fract_z
 _atom_site_occupancy
  Cr  Cr0  1  0.99978432  0.00013078  0.99963228  1
  Cr  Cr1  1  0.16466258  0.16696182  0.16940098  1
  Ni  Ni2  1  0.00232706  0.99831557  0.33477787  1
  Fe  Fe3  1  0.00085700  0.33234099  0.99805296  1
  Cr  Cr4  1  0.16654908  0.50010141  0.17019114  1
  Ni  Ni5  1  0.99695486  0.33220324  0.33583690  1
  Cr  Cr6  1  0.99934927  0.66688636  0.99958347  1
  Fe  Fe7  1  0.16957268  0.83356658  0.16845843  1
  Ni  Ni8  1  0.00164984  0.66857085  0.33538860  1
  Ni  Ni9  1  0.33407599  0.99869500  0.99961496  1
  Cr  Cr10  1  0.49959281  0.16418665  0.17099541  1
  Fe  Fe11  1  0.33348585  0.99710406  0.33587612  1
  Cr  Cr12  1  0.33546905  0.33333731  0.99653524  1
  Fe  Fe13  1  0.49841642  0.50154774  0.16786856  1
  Fe  Fe14  1  0.33152991  0.33406286  0.33756118  1
  Ni  Ni15  1  0.33321394  0.66794371  0.00072072  1
  Ni  Ni16  1  0.49987387  0.83349766  0.16641404  1
  Fe  Fe17  1  0.33298484  0.66749844  0.33456361  1
  Ni  Ni18  1  0.66540751  0.00257959  0.00129455  1
  Fe  Fe19  1  0.83212417  0.16388339  0.17041937  1
  Fe  Fe20  1  0.67075155  0.99925910  0.33531405  1
  Cr  Cr21  1  0.66778073  0.33436517  0.99990807  1
  Cr  Cr22  1  0.83436246  0.49730021  0.16777347  1
  Ni  Ni23  1  0.66429502  0.33240430  0.33536975  1
  Fe  Fe24  1  0.66383170  0.66921097  0.99941688  1
  Fe  Fe25  1  0.83286274  0.83531277  0.16832871  1
  Cr  Cr26  1  0.66722496  0.66487690  0.33385317  1
  Fe  Fe27  1  0.16456293  0.16669799  0.49842915  1
  Ni  Ni28  1  0.00097000  0.99924163  0.66514021  1
  Fe  Fe29  1  0.16588946  0.16669823  0.83205338  1
  Fe  Fe30  1  0.16506716  0.49983303  0.49897823  1
  Fe  Fe31  1  0.99658110  0.33134737  0.66492346  1
  Fe  Fe32  1  0.16672584  0.50117243  0.83096342  1
  Ni  Ni33  1  0.16700299  0.83201619  0.49839560  1
  Ni  Ni34  1  0.00205038  0.66569573  0.66421750  1
  Ni  Ni35  1  0.16727776  0.83226701  0.83334956  1
  Fe  Fe36  1  0.50088455  0.16769272  0.49987451  1
  Cr  Cr37  1  0.33126717  0.00284377  0.66645676  1
  Ni  Ni38  1  0.50230310  0.16856641  0.83079895  1
  Ni  Ni39  1  0.49836340  0.49940605  0.49925536  1
  Fe  Fe40  1  0.33434153  0.33660615  0.66657500  1
  Ni  Ni41  1  0.50066453  0.50114749  0.83282629  1
  Fe  Fe42  1  0.50171011  0.83295186  0.50102401  1
  Fe  Fe43  1  0.33403421  0.66650969  0.66551171  1
  Cr  Cr44  1  0.49923334  0.83509628  0.83228937  1
  Ni  Ni45  1  0.83318386  0.16636916  0.49837466  1
  Ni  Ni46  1  0.66811878  0.00335813  0.66331739  1
  Ni  Ni47  1  0.83323955  0.16886706  0.83222886  1
  Fe  Fe48  1  0.83338225  0.49875712  0.50062429  1
  Ni  Ni49  1  0.66482751  0.33427668  0.66543630  1
  Ni  Ni50  1  0.83392009  0.49691857  0.83008577  1
  Fe  Fe51  1  0.83556706  0.83318817  0.50212585  1
  Ni  Ni52  1  0.66766285  0.66244845  0.66527871  1
  Cr  Cr53  1  0.83217828  0.83388319  0.82831523  1
" 