401,Ni20Fe20Cr60_8,-232.659768877377, 187.139821454889,Ni20Fe20Cr60,"# generated using pymatgen
 data_Cr6Fe5Ni16
_symmetry_space_group_name_H-M   'P 1'
_cell_length_a   7.46704761
_cell_length_b   7.46704761
_cell_length_c   10.56000000
_cell_angle_alpha   90.00000000
_cell_angle_beta   90.00000000
_cell_angle_gamma   90.00000000
_symmetry_Int_Tables_number   1
_chemical_formula_structural   Cr6Fe5Ni16
_chemical_formula_sum   'Cr12 Fe10 Ni32'
_cell_volume   588.79180800
_cell_formula_units_Z   2
loop_
 _symmetry_equiv_pos_site_id
 _symmetry_equiv_pos_as_xyz
  1  'x, y, z'
loop_
 _atom_site_type_symbol
 _atom_site_label
 _atom_site_symmetry_multiplicity
 _atom_site_fract_x
 _atom_site_fract_y
 _atom_site_fract_z
 _atom_site_occupancy
  Ni  Ni0  1  0.99864887  0.99850293  0.99846354  1
  Ni  Ni1  1  0.16759732  0.17033260  0.16795338  1
  Ni  Ni2  1  0.00013327  0.99915175  0.33435595  1
  Cr  Cr3  1  0.00187124  0.33242831  0.99775684  1
  Ni  Ni4  1  0.16772672  0.49952057  0.16772084  1
  Ni  Ni5  1  0.99885148  0.33632834  0.33389299  1
  Ni  Ni6  1  0.99906316  0.66674916  0.99905274  1
  Cr  Cr7  1  0.16432527  0.83070996  0.16782961  1
  Ni  Ni8  1  0.00084771  0.66555096  0.33613474  1
  Cr  Cr9  1  0.33174375  0.00357125  0.99961783  1
  Ni  Ni10  1  0.49882279  0.16825790  0.16819688  1
  Cr  Cr11  1  0.33417524  0.99725395  0.33533543  1
  Ni  Ni12  1  0.33623707  0.33484444  0.00056662  1
  Fe  Fe13  1  0.49964000  0.49953625  0.16708734  1
  Fe  Fe14  1  0.33317805  0.33561039  0.33302090  1
  Ni  Ni15  1  0.33522494  0.66500214  0.00118643  1
  Ni  Ni16  1  0.50137892  0.83180589  0.16445126  1
  Ni  Ni17  1  0.33249538  0.66470837  0.33487794  1
  Fe  Fe18  1  0.66766236  0.00031252  0.99962440  1
  Cr  Cr19  1  0.83420089  0.16531974  0.17017832  1
  Cr  Cr20  1  0.66580052  0.99890897  0.33495268  1
  Cr  Cr21  1  0.66779539  0.33478774  0.99797946  1
  Ni  Ni22  1  0.83638866  0.50230026  0.16881511  1
  Ni  Ni23  1  0.66601699  0.33417668  0.33640184  1
  Fe  Fe24  1  0.66927429  0.66599842  0.99960436  1
  Ni  Ni25  1  0.83292936  0.83057759  0.16433372  1
  Cr  Cr26  1  0.66566376  0.66471355  0.33351042  1
  Cr  Cr27  1  0.16424214  0.17080882  0.49902735  1
  Ni  Ni28  1  0.99931693  0.00116430  0.66638128  1
  Ni  Ni29  1  0.16699338  0.16764562  0.83155160  1
  Ni  Ni30  1  0.16567260  0.50281665  0.50037700  1
  Ni  Ni31  1  0.99794340  0.33279634  0.66718638  1
  Cr  Cr32  1  0.16850528  0.49971761  0.83212038  1
  Fe  Fe33  1  0.16600665  0.83258436  0.50156956  1
  Fe  Fe34  1  0.99403892  0.66624922  0.66492156  1
  Cr  Cr35  1  0.16467733  0.83288593  0.82930801  1
  Ni  Ni36  1  0.50253815  0.16801003  0.50174818  1
  Fe  Fe37  1  0.33554825  0.00311416  0.66527684  1
  Ni  Ni38  1  0.50116293  0.16891422  0.83049185  1
  Ni  Ni39  1  0.49663317  0.49963388  0.50038287  1
  Fe  Fe40  1  0.33501139  0.33304112  0.66669715  1
  Ni  Ni41  1  0.50058241  0.49880290  0.83304615  1
  Ni  Ni42  1  0.50082580  0.83125840  0.50344500  1
  Fe  Fe43  1  0.33469600  0.66494503  0.66413843  1
  Cr  Cr44  1  0.50249393  0.83214690  0.83318162  1
  Ni  Ni45  1  0.83255606  0.16583457  0.50037142  1
  Ni  Ni46  1  0.66795227  0.99991306  0.66638379  1
  Ni  Ni47  1  0.83368344  0.16474844  0.83012256  1
  Fe  Fe48  1  0.83155050  0.49810486  0.50118120  1
  Ni  Ni49  1  0.66648039  0.33386002  0.66579361  1
  Ni  Ni50  1  0.83202024  0.50151419  0.82971132  1
  Ni  Ni51  1  0.83357207  0.83359450  0.50162580  1
  Ni  Ni52  1  0.66457688  0.66509576  0.66696247  1
  Ni  Ni53  1  0.83302609  0.83383845  0.83409509  1
" 