31,Ni20Fe20Cr60_11,-232.335851993689, 182.727133157078,Ni20Fe20Cr60,"# generated using pymatgen
 data_Cr6Fe5Ni16
_symmetry_space_group_name_H-M   'P 1'
_cell_length_a   7.46704761
_cell_length_b   7.46704761
_cell_length_c   10.56000000
_cell_angle_alpha   90.00000000
_cell_angle_beta   90.00000000
_cell_angle_gamma   90.00000000
_symmetry_Int_Tables_number   1
_chemical_formula_structural   Cr6Fe5Ni16
_chemical_formula_sum   'Cr12 Fe10 Ni32'
_cell_volume   588.79180800
_cell_formula_units_Z   2
loop_
 _symmetry_equiv_pos_site_id
 _symmetry_equiv_pos_as_xyz
  1  'x, y, z'
loop_
 _atom_site_type_symbol
 _atom_site_label
 _atom_site_symmetry_multiplicity
 _atom_site_fract_x
 _atom_site_fract_y
 _atom_site_fract_z
 _atom_site_occupancy
  Fe  Fe0  1  0.99874899  0.00132611  0.00130340  1
  Ni  Ni1  1  0.16703662  0.16851088  0.16656598  1
  Cr  Cr2  1  0.00046254  0.99826063  0.33363089  1
  Fe  Fe3  1  0.00104533  0.33364430  0.99951531  1
  Ni  Ni4  1  0.16774041  0.50082901  0.16743413  1
  Ni  Ni5  1  0.00108047  0.33313878  0.33168865  1
  Ni  Ni6  1  0.99949683  0.66764196  0.00021853  1
  Fe  Fe7  1  0.16594862  0.83374881  0.16625066  1
  Ni  Ni8  1  0.99951738  0.66758766  0.33354006  1
  Ni  Ni9  1  0.33186202  0.99942556  0.00029271  1
  Cr  Cr10  1  0.49970581  0.16326357  0.17066852  1
  Ni  Ni11  1  0.33394236  0.99873411  0.33475879  1
  Cr  Cr12  1  0.33447305  0.33342608  0.99771789  1
  Fe  Fe13  1  0.49989847  0.50071057  0.16819059  1
  Ni  Ni14  1  0.33453863  0.33300758  0.33424145  1
  Fe  Fe15  1  0.33576219  0.66669483  0.00006966  1
  Ni  Ni16  1  0.49811509  0.83031686  0.16714566  1
  Fe  Fe17  1  0.33247616  0.66555053  0.33347556  1
  Cr  Cr18  1  0.66655461  0.00041897  0.99970950  1
  Ni  Ni19  1  0.83630115  0.16630121  0.16824664  1
  Fe  Fe20  1  0.66747347  0.99938270  0.33451430  1
  Cr  Cr21  1  0.66792293  0.33584469  0.99880638  1
  Cr  Cr22  1  0.83549894  0.50004058  0.16834040  1
  Ni  Ni23  1  0.66583711  0.33346286  0.33368715  1
  Ni  Ni24  1  0.66858858  0.66871880  0.99894420  1
  Ni  Ni25  1  0.83074730  0.83261571  0.16695162  1
  Fe  Fe26  1  0.66482927  0.66740226  0.33282346  1
  Ni  Ni27  1  0.16778179  0.16762550  0.49900056  1
  Cr  Cr28  1  0.99824372  0.99769971  0.66417953  1
  Ni  Ni29  1  0.16643550  0.16915164  0.83384343  1
  Cr  Cr30  1  0.16495270  0.49736760  0.50098909  1
  Ni  Ni31  1  0.99918574  0.33252858  0.66926616  1
  Ni  Ni32  1  0.16459269  0.49837237  0.83288964  1
  Ni  Ni33  1  0.16727096  0.83241094  0.49704931  1
  Ni  Ni34  1  0.99679915  0.66630056  0.66684805  1
  Cr  Cr35  1  0.16639983  0.83366826  0.83663145  1
  Fe  Fe36  1  0.50150648  0.16793725  0.49930882  1
  Cr  Cr37  1  0.33506614  0.00148501  0.66482810  1
  Ni  Ni38  1  0.49993004  0.16612857  0.83008803  1
  Ni  Ni39  1  0.50000322  0.50028152  0.49834184  1
  Ni  Ni40  1  0.33555031  0.33381568  0.66724468  1
  Ni  Ni41  1  0.50158130  0.50177958  0.83290952  1
  Ni  Ni42  1  0.50141701  0.83374910  0.49811633  1
  Cr  Cr43  1  0.33222374  0.66576067  0.66732831  1
  Ni  Ni44  1  0.50275738  0.83424224  0.83441662  1
  Ni  Ni45  1  0.83275922  0.16708381  0.49872742  1
  Ni  Ni46  1  0.66762546  0.00080629  0.66534398  1
  Ni  Ni47  1  0.83376192  0.16761466  0.83273352  1
  Cr  Cr48  1  0.83194975  0.49857805  0.50112153  1
  Ni  Ni49  1  0.66560179  0.33256983  0.66792850  1
  Ni  Ni50  1  0.83439142  0.50138859  0.83201081  1
  Ni  Ni51  1  0.83002362  0.83230533  0.49978990  1
  Fe  Fe52  1  0.66569920  0.66716809  0.66771652  1
  Ni  Ni53  1  0.83088556  0.83217496  0.83261622  1
" 