58,Ni20Fe40Cr40_12,-231.621979989319, 199.456144987862,Ni20Fe40Cr40,"# generated using pymatgen
 data_Cr4(FeNi)7
_symmetry_space_group_name_H-M   'P 1'
_cell_length_a   7.46704761
_cell_length_b   7.46704761
_cell_length_c   10.56000000
_cell_angle_alpha   90.00000000
_cell_angle_beta   90.00000000
_cell_angle_gamma   90.00000000
_symmetry_Int_Tables_number   1
_chemical_formula_structural   Cr4(FeNi)7
_chemical_formula_sum   'Cr12 Fe21 Ni21'
_cell_volume   588.79180800
_cell_formula_units_Z   3
loop_
 _symmetry_equiv_pos_site_id
 _symmetry_equiv_pos_as_xyz
  1  'x, y, z'
loop_
 _atom_site_type_symbol
 _atom_site_label
 _atom_site_symmetry_multiplicity
 _atom_site_fract_x
 _atom_site_fract_y
 _atom_site_fract_z
 _atom_site_occupancy
  Fe  Fe0  1  0.00265923  0.99452400  0.99856068  1
  Cr  Cr1  1  0.16429829  0.16455476  0.16406177  1
  Fe  Fe2  1  0.99996630  0.00048594  0.33590734  1
  Fe  Fe3  1  0.00177211  0.33717078  0.99814523  1
  Fe  Fe4  1  0.16701063  0.50251974  0.16556264  1
  Cr  Cr5  1  0.00088923  0.33926931  0.33523768  1
  Ni  Ni6  1  0.99700989  0.66504964  0.00047528  1
  Ni  Ni7  1  0.16936095  0.83233530  0.16487985  1
  Cr  Cr8  1  0.00312785  0.66950340  0.33448028  1
  Ni  Ni9  1  0.33289666  0.99722067  0.99718723  1
  Fe  Fe10  1  0.49862322  0.16427367  0.16786472  1
  Cr  Cr11  1  0.33493549  0.99967507  0.33468955  1
  Cr  Cr12  1  0.33480069  0.33269188  0.99715140  1
  Fe  Fe13  1  0.49681340  0.50103709  0.16741036  1
  Ni  Ni14  1  0.33339140  0.33251661  0.33358905  1
  Ni  Ni15  1  0.32897877  0.66853898  0.00065749  1
  Ni  Ni16  1  0.49767525  0.83083740  0.16614656  1
  Fe  Fe17  1  0.33423469  0.66691199  0.33361312  1
  Cr  Cr18  1  0.66240298  0.99683645  0.99909506  1
  Cr  Cr19  1  0.83402547  0.16622630  0.16745753  1
  Ni  Ni20  1  0.66584444  0.99977879  0.33505416  1
  Cr  Cr21  1  0.66654611  0.33516920  0.00110000  1
  Ni  Ni22  1  0.83203936  0.49932798  0.16488426  1
  Fe  Fe23  1  0.66495173  0.33189506  0.33422228  1
  Fe  Fe24  1  0.66299413  0.66555570  0.99959491  1
  Fe  Fe25  1  0.83495181  0.83293481  0.16534861  1
  Cr  Cr26  1  0.67140991  0.66870879  0.33142812  1
  Fe  Fe27  1  0.16799528  0.16893463  0.50205592  1
  Fe  Fe28  1  0.00187518  0.00048497  0.66466506  1
  Fe  Fe29  1  0.16891442  0.16850148  0.83266606  1
  Ni  Ni30  1  0.16796556  0.50145285  0.50155679  1
  Ni  Ni31  1  0.00068093  0.33633197  0.66644171  1
  Ni  Ni32  1  0.16550010  0.50139218  0.83270425  1
  Ni  Ni33  1  0.16817094  0.83279098  0.50152527  1
  Ni  Ni34  1  0.99795457  0.66564656  0.66573003  1
  Fe  Fe35  1  0.16420829  0.82913118  0.83377357  1
  Fe  Fe36  1  0.50118613  0.16756093  0.50104911  1
  Cr  Cr37  1  0.33653396  0.00037993  0.66928029  1
  Fe  Fe38  1  0.50214688  0.16934551  0.83118915  1
  Cr  Cr39  1  0.49741983  0.50271150  0.50119435  1
  Ni  Ni40  1  0.33343596  0.33506313  0.66815937  1
  Ni  Ni41  1  0.49813798  0.50426632  0.83163204  1
  Ni  Ni42  1  0.50025823  0.83350247  0.50138460  1
  Ni  Ni43  1  0.32915721  0.66763540  0.66670368  1
  Ni  Ni44  1  0.49721254  0.82988041  0.83290628  1
  Ni  Ni45  1  0.83436838  0.16654161  0.49969796  1
  Fe  Fe46  1  0.66900591  0.99906564  0.66574568  1
  Cr  Cr47  1  0.83882652  0.16531444  0.83348726  1
  Fe  Fe48  1  0.83389417  0.50103731  0.50316206  1
  Ni  Ni49  1  0.66832601  0.33215979  0.66542742  1
  Ni  Ni50  1  0.83257185  0.49814242  0.83167635  1
  Fe  Fe51  1  0.83387466  0.83500189  0.50211570  1
  Fe  Fe52  1  0.66465879  0.66522141  0.66807529  1
  Fe  Fe53  1  0.83210974  0.82695378  0.83218961  1
" 