342,Ni20Fe20Cr60_2,-232.701336016378, 185.875433981545,Ni20Fe20Cr60,"# generated using pymatgen
 data_Cr6Fe5Ni16
_symmetry_space_group_name_H-M   'P 1'
_cell_length_a   7.46704761
_cell_length_b   7.46704761
_cell_length_c   10.56000000
_cell_angle_alpha   90.00000000
_cell_angle_beta   90.00000000
_cell_angle_gamma   90.00000000
_symmetry_Int_Tables_number   1
_chemical_formula_structural   Cr6Fe5Ni16
_chemical_formula_sum   'Cr12 Fe10 Ni32'
_cell_volume   588.79180800
_cell_formula_units_Z   2
loop_
 _symmetry_equiv_pos_site_id
 _symmetry_equiv_pos_as_xyz
  1  'x, y, z'
loop_
 _atom_site_type_symbol
 _atom_site_label
 _atom_site_symmetry_multiplicity
 _atom_site_fract_x
 _atom_site_fract_y
 _atom_site_fract_z
 _atom_site_occupancy
  Ni  Ni0  1  0.00117673  0.99989483  0.00007380  1
  Ni  Ni1  1  0.16903320  0.16590954  0.16494427  1
  Ni  Ni2  1  0.99996224  0.00230492  0.33474933  1
  Ni  Ni3  1  0.00071060  0.33238519  0.99900972  1
  Cr  Cr4  1  0.16611775  0.49777205  0.16646356  1
  Ni  Ni5  1  0.99988620  0.33162993  0.33467531  1
  Ni  Ni6  1  0.00167565  0.66545396  0.99653731  1
  Cr  Cr7  1  0.16474819  0.83555747  0.16791681  1
  Ni  Ni8  1  0.99708060  0.66653296  0.33834040  1
  Ni  Ni9  1  0.33435158  0.99988656  0.99898061  1
  Fe  Fe10  1  0.50001209  0.16483767  0.16461033  1
  Ni  Ni11  1  0.33439370  0.00082884  0.33422227  1
  Ni  Ni12  1  0.33519646  0.33369145  0.99858714  1
  Fe  Fe13  1  0.49905013  0.50160022  0.16475681  1
  Cr  Cr14  1  0.33344114  0.33199623  0.33499867  1
  Ni  Ni15  1  0.33364154  0.66789026  0.99809332  1
  Fe  Fe16  1  0.49846353  0.83496215  0.16752297  1
  Cr  Cr17  1  0.33207450  0.66831843  0.33721524  1
  Ni  Ni18  1  0.66416227  0.00150136  0.00073243  1
  Fe  Fe19  1  0.83724782  0.16604525  0.16511863  1
  Ni  Ni20  1  0.66695597  0.99969176  0.33455503  1
  Ni  Ni21  1  0.66610020  0.33310855  0.00047181  1
  Cr  Cr22  1  0.83262186  0.50173697  0.16512294  1
  Cr  Cr23  1  0.66949071  0.33213344  0.33346101  1
  Fe  Fe24  1  0.66438517  0.66681828  0.99854398  1
  Cr  Cr25  1  0.83113527  0.83405555  0.16761704  1
  Ni  Ni26  1  0.66571536  0.66770914  0.33480887  1
  Ni  Ni27  1  0.16640323  0.16696518  0.50022455  1
  Ni  Ni28  1  0.00014113  0.99934726  0.66541528  1
  Ni  Ni29  1  0.16869651  0.16716308  0.83494277  1
  Ni  Ni30  1  0.16408106  0.49689363  0.50138325  1
  Ni  Ni31  1  0.00242041  0.33326162  0.66624084  1
  Fe  Fe32  1  0.16739805  0.49855569  0.83309333  1
  Ni  Ni33  1  0.16334681  0.83626225  0.49854544  1
  Ni  Ni34  1  0.99912460  0.66612582  0.66504537  1
  Ni  Ni35  1  0.16470213  0.83425368  0.83498778  1
  Fe  Fe36  1  0.49945578  0.16463775  0.50082490  1
  Cr  Cr37  1  0.33270038  0.00100333  0.66748314  1
  Ni  Ni38  1  0.49868642  0.16947973  0.83425770  1
  Ni  Ni39  1  0.50163810  0.50017220  0.49983702  1
  Ni  Ni40  1  0.33295620  0.33411007  0.66690726  1
  Ni  Ni41  1  0.50067525  0.49982062  0.83512133  1
  Ni  Ni42  1  0.50369802  0.83405757  0.49927844  1
  Cr  Cr43  1  0.33189829  0.66667920  0.66525931  1
  Fe  Fe44  1  0.49916101  0.83550166  0.83338708  1
  Fe  Fe45  1  0.83659158  0.16498589  0.50077202  1
  Ni  Ni46  1  0.66685138  0.99841957  0.66456697  1
  Cr  Cr47  1  0.83406188  0.16416189  0.83387022  1
  Ni  Ni48  1  0.83357658  0.50226892  0.50073099  1
  Cr  Cr49  1  0.66667650  0.33272300  0.66506143  1
  Fe  Fe50  1  0.83474329  0.49816140  0.83279651  1
  Ni  Ni51  1  0.83190926  0.83321305  0.49993520  1
  Ni  Ni52  1  0.66678184  0.66634075  0.66605094  1
  Cr  Cr53  1  0.83279383  0.83118223  0.83185133  1
" 