405,Ni20Fe40Cr40_2,-231.459882882929, 191.430377125051,Ni20Fe40Cr40,"# generated using pymatgen
 data_Cr4(FeNi)7
_symmetry_space_group_name_H-M   'P 1'
_cell_length_a   7.46704761
_cell_length_b   7.46704761
_cell_length_c   10.56000000
_cell_angle_alpha   90.00000000
_cell_angle_beta   90.00000000
_cell_angle_gamma   90.00000000
_symmetry_Int_Tables_number   1
_chemical_formula_structural   Cr4(FeNi)7
_chemical_formula_sum   'Cr12 Fe21 Ni21'
_cell_volume   588.79180800
_cell_formula_units_Z   3
loop_
 _symmetry_equiv_pos_site_id
 _symmetry_equiv_pos_as_xyz
  1  'x, y, z'
loop_
 _atom_site_type_symbol
 _atom_site_label
 _atom_site_symmetry_multiplicity
 _atom_site_fract_x
 _atom_site_fract_y
 _atom_site_fract_z
 _atom_site_occupancy
  Fe  Fe0  1  0.99811627  0.00131255  0.99846114  1
  Fe  Fe1  1  0.16726349  0.16896426  0.16726674  1
  Ni  Ni2  1  0.99714212  0.00087691  0.33129654  1
  Fe  Fe3  1  0.99980521  0.33524613  0.99899512  1
  Ni  Ni4  1  0.16491708  0.50230483  0.16636049  1
  Fe  Fe5  1  0.99947411  0.33532666  0.33291063  1
  Ni  Ni6  1  0.00314719  0.66811843  0.00382794  1
  Fe  Fe7  1  0.16729907  0.83579444  0.16630939  1
  Fe  Fe8  1  0.99760708  0.66855162  0.33155729  1
  Fe  Fe9  1  0.33542466  0.00120386  0.99975767  1
  Ni  Ni10  1  0.49878470  0.16298745  0.16748880  1
  Fe  Fe11  1  0.33362275  0.99734443  0.33216378  1
  Ni  Ni12  1  0.33047309  0.33195607  0.00008133  1
  Cr  Cr13  1  0.50085677  0.49546635  0.16470387  1
  Fe  Fe14  1  0.33296206  0.33029359  0.33162077  1
  Fe  Fe15  1  0.33398259  0.66431371  0.00034896  1
  Fe  Fe16  1  0.50056061  0.83495996  0.16803961  1
  Cr  Cr17  1  0.33448327  0.66207366  0.33419458  1
  Ni  Ni18  1  0.66505165  0.00052075  0.99835899  1
  Cr  Cr19  1  0.82965359  0.16825457  0.16390697  1
  Ni  Ni20  1  0.66764480  0.99866574  0.33291271  1
  Ni  Ni21  1  0.66248214  0.33047773  0.99934868  1
  Fe  Fe22  1  0.83497770  0.50019181  0.16663046  1
  Fe  Fe23  1  0.66731107  0.33413454  0.33234511  1
  Cr  Cr24  1  0.66861074  0.66918449  0.00142732  1
  Fe  Fe25  1  0.83405898  0.83505618  0.16609202  1
  Fe  Fe26  1  0.66869657  0.66812980  0.33453028  1
  Cr  Cr27  1  0.16567566  0.16534138  0.49857728  1
  Cr  Cr28  1  0.99512009  0.00124671  0.67027093  1
  Fe  Fe29  1  0.16516212  0.17019430  0.83374328  1
  Fe  Fe30  1  0.16782954  0.49760484  0.50142316  1
  Ni  Ni31  1  0.00189846  0.33741514  0.66801751  1
  Ni  Ni32  1  0.16908331  0.50071273  0.83290738  1
  Cr  Cr33  1  0.16486376  0.82967286  0.50157826  1
  Ni  Ni34  1  0.99891471  0.66290885  0.66411903  1
  Cr  Cr35  1  0.16792851  0.82745965  0.83419826  1
  Cr  Cr36  1  0.50177360  0.16676101  0.49776877  1
  Cr  Cr37  1  0.33601339  0.00100433  0.66737142  1
  Ni  Ni38  1  0.50051641  0.16788288  0.83416834  1
  Ni  Ni39  1  0.50340326  0.50000655  0.50147193  1
  Ni  Ni40  1  0.33321019  0.33665219  0.66669574  1
  Fe  Fe41  1  0.49976918  0.49881393  0.83306551  1
  Ni  Ni42  1  0.50078297  0.83065523  0.50018555  1
  Ni  Ni43  1  0.33662099  0.66107580  0.66723480  1
  Fe  Fe44  1  0.50391828  0.83235106  0.83166479  1
  Cr  Cr45  1  0.83187629  0.16995277  0.50299697  1
  Ni  Ni46  1  0.66564694  0.99781869  0.66846620  1
  Ni  Ni47  1  0.82831753  0.16705106  0.83409006  1
  Ni  Ni48  1  0.83389512  0.50255243  0.49767817  1
  Fe  Fe49  1  0.66648838  0.33595304  0.66865827  1
  Cr  Cr50  1  0.83547268  0.50124399  0.83535966  1
  Fe  Fe51  1  0.82969491  0.83353735  0.50021756  1
  Ni  Ni52  1  0.66750387  0.66798919  0.66420188  1
  Ni  Ni53  1  0.83421051  0.83443152  0.83293210  1
" 