47,Ni20Fe60Cr20_9,-227.526140395657, 182.653526438378,Ni20Fe60Cr20,"# generated using pymatgen
 data_Cr6Fe16Ni5
_symmetry_space_group_name_H-M   'P 1'
_cell_length_a   7.46704761
_cell_length_b   7.46704761
_cell_length_c   10.56000000
_cell_angle_alpha   90.00000000
_cell_angle_beta   90.00000000
_cell_angle_gamma   90.00000000
_symmetry_Int_Tables_number   1
_chemical_formula_structural   Cr6Fe16Ni5
_chemical_formula_sum   'Cr12 Fe32 Ni10'
_cell_volume   588.79180800
_cell_formula_units_Z   2
loop_
 _symmetry_equiv_pos_site_id
 _symmetry_equiv_pos_as_xyz
  1  'x, y, z'
loop_
 _atom_site_type_symbol
 _atom_site_label
 _atom_site_symmetry_multiplicity
 _atom_site_fract_x
 _atom_site_fract_y
 _atom_site_fract_z
 _atom_site_occupancy
  Ni  Ni0  1  0.00061391  0.99849206  0.99806618  1
  Cr  Cr1  1  0.17072914  0.16406345  0.16411165  1
  Cr  Cr2  1  0.99904625  0.00020514  0.33349832  1
  Cr  Cr3  1  0.00060776  0.33146698  0.99771792  1
  Cr  Cr4  1  0.16009132  0.50204951  0.16649623  1
  Ni  Ni5  1  0.99932391  0.33251421  0.33788946  1
  Ni  Ni6  1  0.99722403  0.66809707  0.99826573  1
  Ni  Ni7  1  0.16463008  0.83128399  0.16368331  1
  Fe  Fe8  1  0.99587372  0.66433418  0.33354325  1
  Fe  Fe9  1  0.33380752  0.99652822  0.99758505  1
  Cr  Cr10  1  0.50552448  0.16828416  0.16641205  1
  Fe  Fe11  1  0.33351316  0.99787187  0.33129976  1
  Fe  Fe12  1  0.33619209  0.33245247  0.99692611  1
  Fe  Fe13  1  0.50049910  0.50276784  0.16753624  1
  Cr  Cr14  1  0.33067790  0.33697389  0.33665394  1
  Cr  Cr15  1  0.33517016  0.66372475  0.99846868  1
  Fe  Fe16  1  0.49895601  0.83123706  0.16803759  1
  Fe  Fe17  1  0.33061291  0.66815789  0.33245631  1
  Cr  Cr18  1  0.67087962  0.99753214  0.00130568  1
  Fe  Fe19  1  0.83824157  0.16810774  0.16794124  1
  Fe  Fe20  1  0.66971856  0.99977996  0.33239001  1
  Fe  Fe21  1  0.66839093  0.33590115  0.99816983  1
  Fe  Fe22  1  0.82977587  0.50096463  0.16779529  1
  Fe  Fe23  1  0.67125772  0.33707742  0.33457070  1
  Ni  Ni24  1  0.66668484  0.66559091  0.99924444  1
  Fe  Fe25  1  0.83492192  0.82941299  0.16580307  1
  Ni  Ni26  1  0.66470956  0.66864084  0.33396603  1
  Fe  Fe27  1  0.16263424  0.16806788  0.50171767  1
  Fe  Fe28  1  0.99866685  0.00132857  0.66782941  1
  Fe  Fe29  1  0.16816342  0.16468779  0.83317732  1
  Ni  Ni30  1  0.16228816  0.50327985  0.50127058  1
  Fe  Fe31  1  0.99723388  0.33405285  0.66548693  1
  Fe  Fe32  1  0.16534701  0.50007782  0.83180577  1
  Cr  Cr33  1  0.16634312  0.83171777  0.50082309  1
  Fe  Fe34  1  0.99890383  0.66519954  0.66862778  1
  Fe  Fe35  1  0.16559892  0.83423659  0.83371666  1
  Cr  Cr36  1  0.50216495  0.16527872  0.49842499  1
  Fe  Fe37  1  0.33334940  0.00060269  0.67001558  1
  Ni  Ni38  1  0.50138110  0.16619265  0.83480170  1
  Fe  Fe39  1  0.50205131  0.50286251  0.50034637  1
  Cr  Cr40  1  0.33188732  0.33524278  0.66546312  1
  Fe  Fe41  1  0.50290625  0.49858398  0.83244777  1
  Cr  Cr42  1  0.49927938  0.83534954  0.50086408  1
  Fe  Fe43  1  0.33271094  0.66717839  0.66902286  1
  Fe  Fe44  1  0.50225307  0.83312125  0.83145494  1
  Ni  Ni45  1  0.83144058  0.16868882  0.50150775  1
  Fe  Fe46  1  0.66776751  0.00151842  0.66883680  1
  Fe  Fe47  1  0.83316288  0.16585041  0.83117430  1
  Ni  Ni48  1  0.83460047  0.49975750  0.50042037  1
  Fe  Fe49  1  0.66785571  0.33331529  0.66724677  1
  Fe  Fe50  1  0.83148711  0.50076331  0.83228582  1
  Fe  Fe51  1  0.83206345  0.83218316  0.50171437  1
  Fe  Fe52  1  0.66740074  0.66511439  0.66673912  1
  Fe  Fe53  1  0.83338435  0.83223500  0.83294402  1
" 