390,Ni20Fe20Cr60_9,-232.541557728548, 179.35281554721,Ni20Fe20Cr60,"# generated using pymatgen
 data_Cr6Fe5Ni16
_symmetry_space_group_name_H-M   'P 1'
_cell_length_a   7.46704761
_cell_length_b   7.46704761
_cell_length_c   10.56000000
_cell_angle_alpha   90.00000000
_cell_angle_beta   90.00000000
_cell_angle_gamma   90.00000000
_symmetry_Int_Tables_number   1
_chemical_formula_structural   Cr6Fe5Ni16
_chemical_formula_sum   'Cr12 Fe10 Ni32'
_cell_volume   588.79180800
_cell_formula_units_Z   2
loop_
 _symmetry_equiv_pos_site_id
 _symmetry_equiv_pos_as_xyz
  1  'x, y, z'
loop_
 _atom_site_type_symbol
 _atom_site_label
 _atom_site_symmetry_multiplicity
 _atom_site_fract_x
 _atom_site_fract_y
 _atom_site_fract_z
 _atom_site_occupancy
  Ni  Ni0  1  0.00203576  0.00177602  0.00101160  1
  Ni  Ni1  1  0.16499960  0.16559329  0.16490690  1
  Ni  Ni2  1  0.99919264  0.00099016  0.32919151  1
  Ni  Ni3  1  0.00073332  0.33448560  0.00119719  1
  Ni  Ni4  1  0.16370578  0.50143089  0.16448586  1
  Ni  Ni5  1  0.99801639  0.33400883  0.33068684  1
  Ni  Ni6  1  0.00101500  0.66584874  0.00136542  1
  Ni  Ni7  1  0.16677229  0.83351640  0.16548006  1
  Ni  Ni8  1  0.00049151  0.66541410  0.32936307  1
  Ni  Ni9  1  0.33248059  0.99924237  0.99999039  1
  Ni  Ni10  1  0.49901935  0.16470381  0.16457557  1
  Ni  Ni11  1  0.33428436  0.99728997  0.32965851  1
  Ni  Ni12  1  0.33141952  0.33263123  0.99960258  1
  Cr  Cr13  1  0.49901336  0.50256679  0.16422295  1
  Cr  Cr14  1  0.32939305  0.33474396  0.32926671  1
  Ni  Ni15  1  0.33313445  0.66702169  0.99820105  1
  Ni  Ni16  1  0.49828548  0.83331464  0.16746741  1
  Ni  Ni17  1  0.33447916  0.66935513  0.33330999  1
  Cr  Cr18  1  0.66517582  0.99798298  0.00303294  1
  Ni  Ni19  1  0.83546116  0.16747395  0.16676377  1
  Ni  Ni20  1  0.66611889  0.99873306  0.33049966  1
  Fe  Fe21  1  0.66747010  0.33361116  0.00094769  1
  Ni  Ni22  1  0.83526924  0.50072145  0.16508020  1
  Cr  Cr23  1  0.66827276  0.33508232  0.33194587  1
  Ni  Ni24  1  0.66650143  0.66518005  0.00077695  1
  Fe  Fe25  1  0.83464273  0.83235908  0.16662819  1
  Ni  Ni26  1  0.66716447  0.66935648  0.33294609  1
  Cr  Cr27  1  0.16200155  0.16560921  0.49884238  1
  Ni  Ni28  1  0.99828591  0.00366916  0.66964051  1
  Fe  Fe29  1  0.16585553  0.16753965  0.83548388  1
  Cr  Cr30  1  0.16807131  0.49975128  0.50025001  1
  Ni  Ni31  1  0.99801509  0.33461598  0.66843952  1
  Fe  Fe32  1  0.16767048  0.50194863  0.83469004  1
  Cr  Cr33  1  0.16702868  0.83274088  0.50065411  1
  Ni  Ni34  1  0.00004988  0.66495612  0.66924389  1
  Ni  Ni35  1  0.16631041  0.83381107  0.83367222  1
  Cr  Cr36  1  0.49775292  0.16834583  0.49827551  1
  Cr  Cr37  1  0.33322963  0.99758398  0.66979042  1
  Fe  Fe38  1  0.49820981  0.16600262  0.83615823  1
  Ni  Ni39  1  0.50279396  0.50270417  0.50240738  1
  Ni  Ni40  1  0.33239226  0.33482580  0.66985191  1
  Ni  Ni41  1  0.50151644  0.49688820  0.83350323  1
  Ni  Ni42  1  0.50255210  0.82984436  0.49884326  1
  Ni  Ni43  1  0.33639144  0.66327505  0.66888086  1
  Ni  Ni44  1  0.49901426  0.82763901  0.83418024  1
  Fe  Fe45  1  0.83312290  0.16788429  0.49840251  1
  Cr  Cr46  1  0.66653432  0.99868270  0.66711523  1
  Fe  Fe47  1  0.83419137  0.16861449  0.83578370  1
  Fe  Fe48  1  0.83428386  0.50164587  0.49932407  1
  Fe  Fe49  1  0.66717928  0.33546745  0.66751726  1
  Fe  Fe50  1  0.83344702  0.50082493  0.83560997  1
  Cr  Cr51  1  0.83611383  0.83430220  0.49793802  1
  Ni  Ni52  1  0.66706702  0.66401475  0.66665390  1
  Cr  Cr53  1  0.83637053  0.83237820  0.83624282  1
" 