163,Ni20Fe20Cr60_7,-232.216486887424, 182.467194517544,Ni20Fe20Cr60,"# generated using pymatgen
 data_Cr6Fe5Ni16
_symmetry_space_group_name_H-M   'P 1'
_cell_length_a   7.46704761
_cell_length_b   7.46704761
_cell_length_c   10.56000000
_cell_angle_alpha   90.00000000
_cell_angle_beta   90.00000000
_cell_angle_gamma   90.00000000
_symmetry_Int_Tables_number   1
_chemical_formula_structural   Cr6Fe5Ni16
_chemical_formula_sum   'Cr12 Fe10 Ni32'
_cell_volume   588.79180800
_cell_formula_units_Z   2
loop_
 _symmetry_equiv_pos_site_id
 _symmetry_equiv_pos_as_xyz
  1  'x, y, z'
loop_
 _atom_site_type_symbol
 _atom_site_label
 _atom_site_symmetry_multiplicity
 _atom_site_fract_x
 _atom_site_fract_y
 _atom_site_fract_z
 _atom_site_occupancy
  Ni  Ni0  1  0.00290362  0.99926761  0.00140683  1
  Ni  Ni1  1  0.16675290  0.16737689  0.16598295  1
  Cr  Cr2  1  0.00046846  0.99780254  0.33043509  1
  Ni  Ni3  1  0.99973154  0.33160972  0.00328487  1
  Cr  Cr4  1  0.16525851  0.50191710  0.16580736  1
  Fe  Fe5  1  0.99669437  0.33559439  0.33194458  1
  Ni  Ni6  1  0.99756922  0.67031246  0.00070870  1
  Ni  Ni7  1  0.16783231  0.83499214  0.16481722  1
  Ni  Ni8  1  0.99959313  0.66749891  0.33414639  1
  Ni  Ni9  1  0.33019099  0.00001298  0.00076391  1
  Fe  Fe10  1  0.49803383  0.16782886  0.16780184  1
  Fe  Fe11  1  0.33434377  0.00083620  0.33022312  1
  Ni  Ni12  1  0.33406119  0.33236010  0.00141215  1
  Ni  Ni13  1  0.50145846  0.50104499  0.16742782  1
  Ni  Ni14  1  0.33276957  0.33331580  0.33386131  1
  Ni  Ni15  1  0.33553521  0.66778696  0.00140227  1
  Ni  Ni16  1  0.50043441  0.83259770  0.16685179  1
  Fe  Fe17  1  0.33405492  0.66693999  0.33147913  1
  Cr  Cr18  1  0.66915553  0.99726012  0.00407565  1
  Fe  Fe19  1  0.83268806  0.16830384  0.16702765  1
  Ni  Ni20  1  0.66569151  0.00009472  0.33036143  1
  Ni  Ni21  1  0.66527736  0.33712010  0.00233879  1
  Ni  Ni22  1  0.83093348  0.50017071  0.16603441  1
  Ni  Ni23  1  0.66164467  0.33463351  0.33259286  1
  Ni  Ni24  1  0.66700913  0.66509720  0.99985267  1
  Ni  Ni25  1  0.83291268  0.83071767  0.16835983  1
  Ni  Ni26  1  0.66896280  0.66602820  0.33261215  1
  Fe  Fe27  1  0.16676729  0.16649759  0.49859647  1
  Ni  Ni28  1  0.00419843  0.99824905  0.66619303  1
  Ni  Ni29  1  0.16520273  0.16474730  0.83326468  1
  Ni  Ni30  1  0.16307372  0.50103106  0.49601504  1
  Ni  Ni31  1  0.00135556  0.33352369  0.66408477  1
  Cr  Cr32  1  0.16465503  0.49912120  0.83925082  1
  Ni  Ni33  1  0.16777362  0.83184914  0.49926308  1
  Ni  Ni34  1  0.00083045  0.66797122  0.66521828  1
  Ni  Ni35  1  0.16577988  0.83436707  0.83526815  1
  Ni  Ni36  1  0.49855249  0.16694390  0.49757176  1
  Fe  Fe37  1  0.33104164  0.99899274  0.66760540  1
  Cr  Cr38  1  0.49963030  0.16594187  0.83469206  1
  Fe  Fe39  1  0.50031067  0.49882599  0.49700781  1
  Cr  Cr40  1  0.33344288  0.33318206  0.66499171  1
  Ni  Ni41  1  0.50223912  0.49961229  0.83628562  1
  Cr  Cr42  1  0.49987510  0.83577821  0.49676717  1
  Cr  Cr43  1  0.33180232  0.66493602  0.66763094  1
  Ni  Ni44  1  0.49902061  0.83073255  0.83659120  1
  Cr  Cr45  1  0.83037049  0.16794776  0.49893042  1
  Cr  Cr46  1  0.66866158  0.99855779  0.66693605  1
  Cr  Cr47  1  0.83692210  0.17021713  0.83450184  1
  Ni  Ni48  1  0.83485259  0.49904656  0.49980236  1
  Ni  Ni49  1  0.66632984  0.33450106  0.66523374  1
  Fe  Fe50  1  0.83431555  0.50110716  0.83477988  1
  Fe  Fe51  1  0.83627826  0.83088529  0.49862498  1
  Cr  Cr52  1  0.66833789  0.66407960  0.66875612  1
  Ni  Ni53  1  0.83641822  0.83283328  0.83312383  1
" 