308,Ni20Fe40Cr40_10,-231.791435535618, 202.700022585978,Ni20Fe40Cr40,"# generated using pymatgen
 data_Cr4(FeNi)7
_symmetry_space_group_name_H-M   'P 1'
_cell_length_a   7.46704761
_cell_length_b   7.46704761
_cell_length_c   10.56000000
_cell_angle_alpha   90.00000000
_cell_angle_beta   90.00000000
_cell_angle_gamma   90.00000000
_symmetry_Int_Tables_number   1
_chemical_formula_structural   Cr4(FeNi)7
_chemical_formula_sum   'Cr12 Fe21 Ni21'
_cell_volume   588.79180800
_cell_formula_units_Z   3
loop_
 _symmetry_equiv_pos_site_id
 _symmetry_equiv_pos_as_xyz
  1  'x, y, z'
loop_
 _atom_site_type_symbol
 _atom_site_label
 _atom_site_symmetry_multiplicity
 _atom_site_fract_x
 _atom_site_fract_y
 _atom_site_fract_z
 _atom_site_occupancy
  Ni  Ni0  1  0.00060985  0.99904486  0.00008838  1
  Ni  Ni1  1  0.16833077  0.16591187  0.16394791  1
  Cr  Cr2  1  0.00065623  0.99726577  0.33256353  1
  Ni  Ni3  1  0.00238171  0.33057019  0.99994340  1
  Ni  Ni4  1  0.16637205  0.50088873  0.16301328  1
  Cr  Cr5  1  0.00457791  0.33345994  0.33152840  1
  Fe  Fe6  1  0.00288339  0.66641409  0.99920380  1
  Fe  Fe7  1  0.16680212  0.83202038  0.16323573  1
  Fe  Fe8  1  0.00075324  0.66617392  0.33284492  1
  Fe  Fe9  1  0.33086284  0.00323148  0.99890300  1
  Ni  Ni10  1  0.49660786  0.16548097  0.16852937  1
  Ni  Ni11  1  0.33191058  0.99983254  0.33328141  1
  Ni  Ni12  1  0.33119554  0.33675397  0.00074772  1
  Ni  Ni13  1  0.49815651  0.50004580  0.16755737  1
  Ni  Ni14  1  0.33441744  0.33415879  0.33020389  1
  Ni  Ni15  1  0.33477428  0.66514771  0.99770503  1
  Cr  Cr16  1  0.49674802  0.83464810  0.16371162  1
  Fe  Fe17  1  0.33083207  0.66750483  0.33185651  1
  Cr  Cr18  1  0.66987718  0.99647143  0.99892471  1
  Fe  Fe19  1  0.83373534  0.16659455  0.16588141  1
  Ni  Ni20  1  0.66510835  0.99601203  0.33260095  1
  Cr  Cr21  1  0.66290106  0.33327453  0.00439648  1
  Ni  Ni22  1  0.83650930  0.50076559  0.16538931  1
  Fe  Fe23  1  0.66633046  0.33167831  0.32946483  1
  Fe  Fe24  1  0.66715687  0.66364944  0.00008300  1
  Fe  Fe25  1  0.83514513  0.83089756  0.16553284  1
  Cr  Cr26  1  0.66565363  0.66486552  0.33267922  1
  Ni  Ni27  1  0.16925089  0.16623698  0.50073217  1
  Cr  Cr28  1  0.00081093  0.00204127  0.66594740  1
  Fe  Fe29  1  0.16526263  0.16796476  0.83581931  1
  Cr  Cr30  1  0.16454641  0.50206679  0.50204905  1
  Ni  Ni31  1  0.00144452  0.33447680  0.66837665  1
  Fe  Fe32  1  0.16687388  0.50205651  0.83481673  1
  Fe  Fe33  1  0.16751140  0.83413031  0.50124050  1
  Ni  Ni34  1  0.99725852  0.66889164  0.66674115  1
  Ni  Ni35  1  0.16877177  0.83505118  0.83436478  1
  Cr  Cr36  1  0.50006534  0.16246416  0.49702494  1
  Fe  Fe37  1  0.33336596  0.99767342  0.66709741  1
  Fe  Fe38  1  0.50007452  0.16743012  0.83526202  1
  Fe  Fe39  1  0.50053123  0.49906138  0.50058059  1
  Cr  Cr40  1  0.33373430  0.33311811  0.67013484  1
  Ni  Ni41  1  0.50045206  0.50277662  0.83395941  1
  Ni  Ni42  1  0.49659371  0.83133780  0.50243381  1
  Fe  Fe43  1  0.33167665  0.66838526  0.67006484  1
  Fe  Fe44  1  0.50010616  0.83280444  0.83262772  1
  Cr  Cr45  1  0.83301577  0.17230306  0.49973696  1
  Fe  Fe46  1  0.66633653  0.99972903  0.66801560  1
  Ni  Ni47  1  0.83419528  0.16610385  0.83345852  1
  Ni  Ni48  1  0.83274728  0.50347803  0.50245699  1
  Fe  Fe49  1  0.66873841  0.33585112  0.66827977  1
  Cr  Cr50  1  0.83550400  0.49781887  0.83352122  1
  Fe  Fe51  1  0.82982868  0.83317464  0.50115594  1
  Ni  Ni52  1  0.66452916  0.66848941  0.66748323  1
  Fe  Fe53  1  0.83548425  0.83232155  0.83280042  1
" 