462,Ni20Fe40Cr40_9,-231.510598276329, 195.993708762877,Ni20Fe40Cr40,"# generated using pymatgen
 data_Cr4(FeNi)7
_symmetry_space_group_name_H-M   'P 1'
_cell_length_a   7.46704761
_cell_length_b   7.46704761
_cell_length_c   10.56000000
_cell_angle_alpha   90.00000000
_cell_angle_beta   90.00000000
_cell_angle_gamma   90.00000000
_symmetry_Int_Tables_number   1
_chemical_formula_structural   Cr4(FeNi)7
_chemical_formula_sum   'Cr12 Fe21 Ni21'
_cell_volume   588.79180800
_cell_formula_units_Z   3
loop_
 _symmetry_equiv_pos_site_id
 _symmetry_equiv_pos_as_xyz
  1  'x, y, z'
loop_
 _atom_site_type_symbol
 _atom_site_label
 _atom_site_symmetry_multiplicity
 _atom_site_fract_x
 _atom_site_fract_y
 _atom_site_fract_z
 _atom_site_occupancy
  Ni  Ni0  1  0.99799206  0.00205605  0.00133673  1
  Fe  Fe1  1  0.16333109  0.16629868  0.16819339  1
  Fe  Fe2  1  0.00166860  0.99893048  0.33253638  1
  Cr  Cr3  1  0.99974388  0.33317633  0.99796482  1
  Fe  Fe4  1  0.16914848  0.50206628  0.16915764  1
  Fe  Fe5  1  0.00240703  0.33419298  0.33516335  1
  Cr  Cr6  1  0.00327590  0.66882443  0.99814723  1
  Ni  Ni7  1  0.16521682  0.83488736  0.16884525  1
  Fe  Fe8  1  0.00155431  0.66778409  0.33457881  1
  Cr  Cr9  1  0.33307610  0.99758947  0.00119420  1
  Cr  Cr10  1  0.49572470  0.16862933  0.16714790  1
  Fe  Fe11  1  0.33101040  0.99748298  0.33443317  1
  Fe  Fe12  1  0.33291673  0.33260676  0.99822546  1
  Ni  Ni13  1  0.49806641  0.50104581  0.16718012  1
  Fe  Fe14  1  0.33336863  0.33554419  0.33502595  1
  Cr  Cr15  1  0.33779292  0.66457222  0.99883213  1
  Ni  Ni16  1  0.50087264  0.83183049  0.16774232  1
  Ni  Ni17  1  0.33192211  0.66577752  0.33364247  1
  Ni  Ni18  1  0.66708229  0.99911688  0.99829485  1
  Fe  Fe19  1  0.83226545  0.16457137  0.16742403  1
  Cr  Cr20  1  0.66439294  0.00282460  0.33486803  1
  Cr  Cr21  1  0.66491218  0.33337103  0.99910570  1
  Cr  Cr22  1  0.83209589  0.50318901  0.17077211  1
  Fe  Fe23  1  0.66376138  0.33756929  0.33608905  1
  Ni  Ni24  1  0.66705558  0.66735192  0.00070049  1
  Ni  Ni25  1  0.83337103  0.83501176  0.16539724  1
  Fe  Fe26  1  0.66231901  0.66701030  0.33369132  1
  Ni  Ni27  1  0.17038528  0.16663210  0.49833956  1
  Cr  Cr28  1  0.00291020  0.00078661  0.66907225  1
  Ni  Ni29  1  0.16882393  0.16796998  0.83326392  1
  Ni  Ni30  1  0.16812127  0.49785774  0.49981685  1
  Fe  Fe31  1  0.00278794  0.33458434  0.66692184  1
  Fe  Fe32  1  0.17042718  0.49913065  0.83044725  1
  Fe  Fe33  1  0.16863943  0.83112546  0.49846460  1
  Cr  Cr34  1  0.00299514  0.66495852  0.66686015  1
  Fe  Fe35  1  0.16954699  0.83630545  0.83270024  1
  Fe  Fe36  1  0.49865690  0.16988064  0.50206542  1
  Ni  Ni37  1  0.33406858  0.99979166  0.66299182  1
  Ni  Ni38  1  0.49628525  0.16517387  0.82966930  1
  Ni  Ni39  1  0.49925753  0.50083101  0.50059778  1
  Fe  Fe40  1  0.33406082  0.33377534  0.66545542  1
  Fe  Fe41  1  0.50280876  0.49971389  0.83021646  1
  Fe  Fe42  1  0.49614523  0.83025137  0.50086952  1
  Ni  Ni43  1  0.33540092  0.66764270  0.66605461  1
  Ni  Ni44  1  0.50292830  0.83316138  0.83104258  1
  Cr  Cr45  1  0.83568280  0.16831275  0.50268039  1
  Fe  Fe46  1  0.66365712  0.99711772  0.66858768  1
  Fe  Fe47  1  0.83042233  0.16482047  0.83188464  1
  Ni  Ni48  1  0.83295070  0.49959482  0.49929230  1
  Ni  Ni49  1  0.66704988  0.33306292  0.66513318  1
  Ni  Ni50  1  0.83298959  0.50099730  0.82932555  1
  Cr  Cr51  1  0.83089735  0.82971237  0.50096008  1
  Ni  Ni52  1  0.66503317  0.66243089  0.66586772  1
  Ni  Ni53  1  0.83072284  0.83106647  0.83572874  1
" 