370,Ni20Fe60Cr20_13,-227.303467867835, 185.276178250639,Ni20Fe60Cr20,"# generated using pymatgen
 data_Cr6Fe16Ni5
_symmetry_space_group_name_H-M   'P 1'
_cell_length_a   7.46704761
_cell_length_b   7.46704761
_cell_length_c   10.56000000
_cell_angle_alpha   90.00000000
_cell_angle_beta   90.00000000
_cell_angle_gamma   90.00000000
_symmetry_Int_Tables_number   1
_chemical_formula_structural   Cr6Fe16Ni5
_chemical_formula_sum   'Cr12 Fe32 Ni10'
_cell_volume   588.79180800
_cell_formula_units_Z   2
loop_
 _symmetry_equiv_pos_site_id
 _symmetry_equiv_pos_as_xyz
  1  'x, y, z'
loop_
 _atom_site_type_symbol
 _atom_site_label
 _atom_site_symmetry_multiplicity
 _atom_site_fract_x
 _atom_site_fract_y
 _atom_site_fract_z
 _atom_site_occupancy
  Fe  Fe0  1  0.00247197  0.00066321  0.99925939  1
  Fe  Fe1  1  0.16993109  0.16577306  0.16554246  1
  Fe  Fe2  1  0.00326095  0.99639762  0.33221186  1
  Fe  Fe3  1  0.00195837  0.33052090  0.99961033  1
  Fe  Fe4  1  0.16760257  0.50223600  0.16620222  1
  Cr  Cr5  1  0.00243174  0.33334569  0.33457411  1
  Fe  Fe6  1  0.00302916  0.66933302  0.00006288  1
  Fe  Fe7  1  0.16638769  0.83203572  0.16569814  1
  Ni  Ni8  1  0.00276442  0.66802116  0.33296740  1
  Fe  Fe9  1  0.33274948  0.00054994  0.99940829  1
  Fe  Fe10  1  0.49786939  0.16526556  0.16709671  1
  Fe  Fe11  1  0.33097666  0.99770380  0.33173115  1
  Ni  Ni12  1  0.33037517  0.33335413  0.99855778  1
  Cr  Cr13  1  0.49730451  0.49784113  0.16540723  1
  Ni  Ni14  1  0.33097520  0.33266581  0.33309591  1
  Fe  Fe15  1  0.33423006  0.66948245  0.99940582  1
  Ni  Ni16  1  0.49689241  0.83473810  0.16806016  1
  Ni  Ni17  1  0.33108689  0.66746327  0.33372412  1
  Cr  Cr18  1  0.66501914  0.99596591  0.99934722  1
  Cr  Cr19  1  0.83350484  0.16646894  0.16848062  1
  Fe  Fe20  1  0.66606788  0.99945526  0.33211736  1
  Ni  Ni21  1  0.66365879  0.32955512  0.99902124  1
  Cr  Cr22  1  0.83476801  0.50149312  0.16423589  1
  Fe  Fe23  1  0.66491448  0.33596100  0.33382423  1
  Fe  Fe24  1  0.66244464  0.66658488  0.00001679  1
  Ni  Ni25  1  0.83542031  0.83375434  0.16459000  1
  Cr  Cr26  1  0.66618225  0.67072092  0.33214075  1
  Fe  Fe27  1  0.16699386  0.16313340  0.49972853  1
  Fe  Fe28  1  0.00003840  0.99926091  0.66904181  1
  Fe  Fe29  1  0.16888210  0.16539100  0.83427563  1
  Fe  Fe30  1  0.16921943  0.50246026  0.49923932  1
  Cr  Cr31  1  0.00476516  0.33243521  0.66648668  1
  Fe  Fe32  1  0.16960379  0.50347725  0.83474359  1
  Fe  Fe33  1  0.16936904  0.83266968  0.50100474  1
  Fe  Fe34  1  0.00092916  0.66749728  0.66815476  1
  Ni  Ni35  1  0.16780922  0.83512445  0.83244325  1
  Cr  Cr36  1  0.49892161  0.16653180  0.49691702  1
  Fe  Fe37  1  0.33384998  0.00038877  0.66757394  1
  Fe  Fe38  1  0.49797843  0.16610368  0.83324269  1
  Fe  Fe39  1  0.49709271  0.50183249  0.49809182  1
  Fe  Fe40  1  0.33569639  0.33438472  0.66699450  1
  Fe  Fe41  1  0.49624479  0.50075887  0.83631555  1
  Fe  Fe42  1  0.49764716  0.83409391  0.50029547  1
  Fe  Fe43  1  0.33109244  0.66800157  0.66682983  1
  Ni  Ni44  1  0.49658966  0.83509007  0.83177542  1
  Fe  Fe45  1  0.83381419  0.16478737  0.49931114  1
  Ni  Ni46  1  0.66601094  0.99922515  0.66811589  1
  Fe  Fe47  1  0.83359962  0.16237649  0.83411929  1
  Fe  Fe48  1  0.83408596  0.50076749  0.49935068  1
  Cr  Cr49  1  0.66796945  0.33212085  0.66620595  1
  Cr  Cr50  1  0.83328401  0.49855350  0.83865010  1
  Cr  Cr51  1  0.83677806  0.83402139  0.50170377  1
  Cr  Cr52  1  0.66284340  0.66856656  0.66905811  1
  Fe  Fe53  1  0.83461296  0.83359584  0.83394048  1
" 