214,Ni20Fe20Cr60_4,-232.292150127498, 185.627071654405,Ni20Fe20Cr60,"# generated using pymatgen
 data_Cr6Fe5Ni16
_symmetry_space_group_name_H-M   'P 1'
_cell_length_a   7.46704761
_cell_length_b   7.46704761
_cell_length_c   10.56000000
_cell_angle_alpha   90.00000000
_cell_angle_beta   90.00000000
_cell_angle_gamma   90.00000000
_symmetry_Int_Tables_number   1
_chemical_formula_structural   Cr6Fe5Ni16
_chemical_formula_sum   'Cr12 Fe10 Ni32'
_cell_volume   588.79180800
_cell_formula_units_Z   2
loop_
 _symmetry_equiv_pos_site_id
 _symmetry_equiv_pos_as_xyz
  1  'x, y, z'
loop_
 _atom_site_type_symbol
 _atom_site_label
 _atom_site_symmetry_multiplicity
 _atom_site_fract_x
 _atom_site_fract_y
 _atom_site_fract_z
 _atom_site_occupancy
  Ni  Ni0  1  0.00059584  0.99891737  0.99913902  1
  Ni  Ni1  1  0.16667664  0.16668371  0.16722153  1
  Ni  Ni2  1  0.99653129  0.99792224  0.33275615  1
  Cr  Cr3  1  0.00114738  0.33222676  0.99916876  1
  Ni  Ni4  1  0.16827754  0.49843490  0.16689108  1
  Ni  Ni5  1  0.99982625  0.33556744  0.33266596  1
  Ni  Ni6  1  0.00164298  0.66757981  0.99683580  1
  Cr  Cr7  1  0.16478932  0.83347244  0.16576205  1
  Ni  Ni8  1  0.00153583  0.66657000  0.33637010  1
  Ni  Ni9  1  0.33327935  0.99943319  0.99763427  1
  Ni  Ni10  1  0.49653746  0.16701075  0.16863048  1
  Cr  Cr11  1  0.33552960  0.99747626  0.33462055  1
  Fe  Fe12  1  0.33290406  0.33176507  0.00192785  1
  Ni  Ni13  1  0.49918328  0.49963297  0.16678191  1
  Ni  Ni14  1  0.33440522  0.33648550  0.33216632  1
  Ni  Ni15  1  0.33286155  0.66842750  0.00046595  1
  Ni  Ni16  1  0.50161538  0.83104409  0.16569665  1
  Ni  Ni17  1  0.33248021  0.66299172  0.33355246  1
  Cr  Cr18  1  0.66708283  0.99879404  0.00198116  1
  Fe  Fe19  1  0.83422998  0.16548737  0.17005497  1
  Ni  Ni20  1  0.66838345  0.00005603  0.33148868  1
  Cr  Cr21  1  0.66768188  0.32990155  0.00005389  1
  Cr  Cr22  1  0.83318737  0.50417125  0.16766966  1
  Ni  Ni23  1  0.66509113  0.33206050  0.33428527  1
  Ni  Ni24  1  0.66707629  0.66831662  0.99962615  1
  Ni  Ni25  1  0.83398784  0.83323757  0.16755790  1
  Fe  Fe26  1  0.66711313  0.66677378  0.33269081  1
  Cr  Cr27  1  0.16705864  0.16587317  0.49832220  1
  Fe  Fe28  1  0.99907660  0.99952943  0.66757629  1
  Ni  Ni29  1  0.16638146  0.16591674  0.83340611  1
  Fe  Fe30  1  0.16491745  0.50089431  0.49726337  1
  Ni  Ni31  1  0.99837175  0.33568685  0.66830201  1
  Fe  Fe32  1  0.16646561  0.50282214  0.83465427  1
  Ni  Ni33  1  0.16262057  0.83297504  0.50045569  1
  Fe  Fe34  1  0.99628191  0.66662937  0.66662540  1
  Ni  Ni35  1  0.16483650  0.83765263  0.83350179  1
  Ni  Ni36  1  0.50113610  0.16969030  0.50070289  1
  Fe  Fe37  1  0.33366050  0.00329221  0.66811171  1
  Ni  Ni38  1  0.49693366  0.16555698  0.83133527  1
  Ni  Ni39  1  0.50362915  0.49908676  0.49721176  1
  Cr  Cr40  1  0.33358703  0.33752230  0.66541908  1
  Cr  Cr41  1  0.50358704  0.50110821  0.83662730  1
  Cr  Cr42  1  0.50197232  0.83412777  0.50055497  1
  Cr  Cr43  1  0.32899165  0.67092177  0.66522763  1
  Ni  Ni44  1  0.49947981  0.83532577  0.83376649  1
  Cr  Cr45  1  0.83317850  0.16686791  0.49895466  1
  Ni  Ni46  1  0.66721295  0.99878149  0.66824327  1
  Fe  Fe47  1  0.83343506  0.16328318  0.83061134  1
  Ni  Ni48  1  0.83220173  0.50081478  0.50091513  1
  Ni  Ni49  1  0.66888523  0.33041312  0.66670594  1
  Ni  Ni50  1  0.83502496  0.50026509  0.83144591  1
  Ni  Ni51  1  0.83496336  0.83005603  0.49981892  1
  Fe  Fe52  1  0.66801014  0.66459964  0.66762021  1
  Ni  Ni53  1  0.83444723  0.82986659  0.83292499  1
" 