76,Ni20Fe40Cr40_11,-231.569152128654, 193.677028971506,Ni20Fe40Cr40,"# generated using pymatgen
 data_Cr4(FeNi)7
_symmetry_space_group_name_H-M   'P 1'
_cell_length_a   7.46704761
_cell_length_b   7.46704761
_cell_length_c   10.56000000
_cell_angle_alpha   90.00000000
_cell_angle_beta   90.00000000
_cell_angle_gamma   90.00000000
_symmetry_Int_Tables_number   1
_chemical_formula_structural   Cr4(FeNi)7
_chemical_formula_sum   'Cr12 Fe21 Ni21'
_cell_volume   588.79180800
_cell_formula_units_Z   3
loop_
 _symmetry_equiv_pos_site_id
 _symmetry_equiv_pos_as_xyz
  1  'x, y, z'
loop_
 _atom_site_type_symbol
 _atom_site_label
 _atom_site_symmetry_multiplicity
 _atom_site_fract_x
 _atom_site_fract_y
 _atom_site_fract_z
 _atom_site_occupancy
  Fe  Fe0  1  0.00038083  0.00313155  0.00022107  1
  Ni  Ni1  1  0.16772224  0.16426354  0.16261976  1
  Ni  Ni2  1  0.99951120  0.99789693  0.32935753  1
  Ni  Ni3  1  0.99849556  0.33414877  0.99967266  1
  Cr  Cr4  1  0.16692342  0.49848348  0.16477621  1
  Cr  Cr5  1  0.99817703  0.33347588  0.33342005  1
  Fe  Fe6  1  0.99831987  0.66651497  0.99877089  1
  Fe  Fe7  1  0.16366021  0.83378243  0.16360311  1
  Ni  Ni8  1  0.99832440  0.66866652  0.33403292  1
  Ni  Ni9  1  0.33257629  0.99713253  0.99873912  1
  Ni  Ni10  1  0.49878533  0.16650460  0.16405625  1
  Cr  Cr11  1  0.33416771  0.99796796  0.33146059  1
  Ni  Ni12  1  0.33451757  0.33178633  0.99894010  1
  Ni  Ni13  1  0.50129291  0.50113808  0.16326615  1
  Cr  Cr14  1  0.33629912  0.33410525  0.33300943  1
  Fe  Fe15  1  0.33505575  0.66478417  0.99768668  1
  Fe  Fe16  1  0.50120179  0.83211516  0.16411413  1
  Cr  Cr17  1  0.33378100  0.66799516  0.33273734  1
  Cr  Cr18  1  0.66691580  0.00058534  0.00232044  1
  Ni  Ni19  1  0.83540492  0.16521741  0.16618769  1
  Fe  Fe20  1  0.66904295  0.99909030  0.33045409  1
  Ni  Ni21  1  0.66815105  0.33456162  0.00161445  1
  Ni  Ni22  1  0.83230147  0.50367792  0.16470766  1
  Cr  Cr23  1  0.66920277  0.33414518  0.32970688  1
  Fe  Fe24  1  0.66545106  0.66494684  0.00046906  1
  Ni  Ni25  1  0.83363483  0.83181169  0.16627672  1
  Ni  Ni26  1  0.66706702  0.66775195  0.33169079  1
  Cr  Cr27  1  0.16761864  0.16678692  0.50108353  1
  Cr  Cr28  1  0.99798781  0.99891723  0.67130058  1
  Fe  Fe29  1  0.16755080  0.16715421  0.83694341  1
  Ni  Ni30  1  0.16736907  0.50249404  0.50166195  1
  Cr  Cr31  1  0.99633376  0.33544502  0.66666558  1
  Fe  Fe32  1  0.16617549  0.49939011  0.83466597  1
  Fe  Fe33  1  0.16240442  0.83290169  0.49992020  1
  Ni  Ni34  1  0.00091997  0.66627530  0.66831363  1
  Fe  Fe35  1  0.16614645  0.83268142  0.83596482  1
  Fe  Fe36  1  0.50374934  0.16720865  0.50107890  1
  Fe  Fe37  1  0.33488797  0.00150619  0.67019721  1
  Fe  Fe38  1  0.50137647  0.16628460  0.83523084  1
  Fe  Fe39  1  0.50439135  0.49980053  0.50047013  1
  Fe  Fe40  1  0.33481688  0.33358975  0.66854825  1
  Fe  Fe41  1  0.50207809  0.49778223  0.83498608  1
  Fe  Fe42  1  0.50095849  0.83456051  0.50162165  1
  Cr  Cr43  1  0.33256173  0.66816390  0.66572869  1
  Ni  Ni44  1  0.50008911  0.83223050  0.83318834  1
  Ni  Ni45  1  0.83077677  0.16539291  0.49931775  1
  Ni  Ni46  1  0.66355111  0.00207486  0.66790493  1
  Ni  Ni47  1  0.83223890  0.16763112  0.83488491  1
  Ni  Ni48  1  0.83332226  0.50245972  0.50146748  1
  Ni  Ni49  1  0.66545056  0.33127107  0.66741088  1
  Fe  Fe50  1  0.83107673  0.50007586  0.83443637  1
  Cr  Cr51  1  0.83064211  0.83392511  0.50055235  1
  Fe  Fe52  1  0.66865883  0.66570856  0.66828431  1
  Fe  Fe53  1  0.83050280  0.83260645  0.83425949  1
" 