84,Ni20Fe40Cr40_6,-232.123395789765, 201.344482098915,Ni20Fe40Cr40,"# generated using pymatgen
 data_Cr4(FeNi)7
_symmetry_space_group_name_H-M   'P 1'
_cell_length_a   7.46704761
_cell_length_b   7.46704761
_cell_length_c   10.56000000
_cell_angle_alpha   90.00000000
_cell_angle_beta   90.00000000
_cell_angle_gamma   90.00000000
_symmetry_Int_Tables_number   1
_chemical_formula_structural   Cr4(FeNi)7
_chemical_formula_sum   'Cr12 Fe21 Ni21'
_cell_volume   588.79180800
_cell_formula_units_Z   3
loop_
 _symmetry_equiv_pos_site_id
 _symmetry_equiv_pos_as_xyz
  1  'x, y, z'
loop_
 _atom_site_type_symbol
 _atom_site_label
 _atom_site_symmetry_multiplicity
 _atom_site_fract_x
 _atom_site_fract_y
 _atom_site_fract_z
 _atom_site_occupancy
  Ni  Ni0  1  0.99634868  0.99994102  0.00069812  1
  Cr  Cr1  1  0.16865040  0.16804527  0.16557518  1
  Cr  Cr2  1  0.99706446  0.00153403  0.33363766  1
  Fe  Fe3  1  0.00073850  0.33488096  0.00178163  1
  Ni  Ni4  1  0.16590338  0.50037940  0.16898852  1
  Ni  Ni5  1  0.99871329  0.33658236  0.33243338  1
  Cr  Cr6  1  0.00318349  0.66856437  0.00054006  1
  Ni  Ni7  1  0.16562249  0.83450018  0.16769111  1
  Ni  Ni8  1  0.99876728  0.66737430  0.33286016  1
  Fe  Fe9  1  0.33305970  0.99764840  0.00091110  1
  Cr  Cr10  1  0.49986532  0.16606806  0.16743470  1
  Ni  Ni11  1  0.33362532  0.00053901  0.33376801  1
  Ni  Ni12  1  0.33800979  0.33548235  0.99932879  1
  Ni  Ni13  1  0.50361846  0.49836147  0.16877794  1
  Ni  Ni14  1  0.33477608  0.33507125  0.33540106  1
  Cr  Cr15  1  0.33442183  0.66362687  0.99942366  1
  Fe  Fe16  1  0.49863678  0.82999262  0.16942658  1
  Fe  Fe17  1  0.33087624  0.66460380  0.33105618  1
  Fe  Fe18  1  0.66519187  0.99930425  0.99870223  1
  Fe  Fe19  1  0.83301494  0.17129857  0.16561036  1
  Fe  Fe20  1  0.66679314  0.00308643  0.33531868  1
  Ni  Ni21  1  0.66582254  0.33075765  0.99822473  1
  Ni  Ni22  1  0.83123973  0.50101129  0.16622632  1
  Ni  Ni23  1  0.66606183  0.33360480  0.33572228  1
  Fe  Fe24  1  0.66543938  0.66355535  0.00025185  1
  Fe  Fe25  1  0.83145248  0.83222781  0.16732586  1
  Fe  Fe26  1  0.66776925  0.66493187  0.33288596  1
  Ni  Ni27  1  0.16937310  0.16917826  0.49911258  1
  Fe  Fe28  1  0.00098750  0.00231699  0.66626545  1
  Cr  Cr29  1  0.17025678  0.16606041  0.83655585  1
  Fe  Fe30  1  0.16606262  0.49789858  0.49826462  1
  Fe  Fe31  1  0.00196242  0.33204650  0.66537986  1
  Ni  Ni32  1  0.16739484  0.49782288  0.83227869  1
  Cr  Cr33  1  0.16541362  0.83518250  0.50082875  1
  Fe  Fe34  1  0.99991340  0.66689711  0.66680217  1
  Ni  Ni35  1  0.16695593  0.83619896  0.83199591  1
  Ni  Ni36  1  0.49876542  0.16798933  0.50045355  1
  Fe  Fe37  1  0.33724662  0.00174255  0.66563252  1
  Fe  Fe38  1  0.50172470  0.16691866  0.83177017  1
  Fe  Fe39  1  0.49837019  0.49818051  0.50006218  1
  Ni  Ni40  1  0.33301946  0.33228944  0.66545420  1
  Ni  Ni41  1  0.50144254  0.49663322  0.83199868  1
  Cr  Cr42  1  0.50210359  0.83402842  0.49733524  1
  Cr  Cr43  1  0.33187466  0.66197380  0.66845621  1
  Fe  Fe44  1  0.49862416  0.83304009  0.83153591  1
  Fe  Fe45  1  0.83333476  0.16683395  0.50067497  1
  Ni  Ni46  1  0.67056821  0.00173235  0.66549865  1
  Fe  Fe47  1  0.83416527  0.16630023  0.83378569  1
  Cr  Cr48  1  0.83139615  0.50260094  0.50252193  1
  Fe  Fe49  1  0.66286813  0.33203737  0.66618639  1
  Cr  Cr50  1  0.83181285  0.49825926  0.83222633  1
  Ni  Ni51  1  0.83279713  0.83264193  0.50124115  1
  Ni  Ni52  1  0.66447507  0.66853025  0.66694070  1
  Cr  Cr53  1  0.83242423  0.83169181  0.83073954  1
" 