337,Ni20Fe20Cr60_1,-232.611164649748, 185.038882119044,Ni20Fe20Cr60,"# generated using pymatgen
 data_Cr6Fe5Ni16
_symmetry_space_group_name_H-M   'P 1'
_cell_length_a   7.46704761
_cell_length_b   7.46704761
_cell_length_c   10.56000000
_cell_angle_alpha   90.00000000
_cell_angle_beta   90.00000000
_cell_angle_gamma   90.00000000
_symmetry_Int_Tables_number   1
_chemical_formula_structural   Cr6Fe5Ni16
_chemical_formula_sum   'Cr12 Fe10 Ni32'
_cell_volume   588.79180800
_cell_formula_units_Z   2
loop_
 _symmetry_equiv_pos_site_id
 _symmetry_equiv_pos_as_xyz
  1  'x, y, z'
loop_
 _atom_site_type_symbol
 _atom_site_label
 _atom_site_symmetry_multiplicity
 _atom_site_fract_x
 _atom_site_fract_y
 _atom_site_fract_z
 _atom_site_occupancy
  Fe  Fe0  1  0.00231269  0.00082434  0.00082698  1
  Ni  Ni1  1  0.16949733  0.16888324  0.16645003  1
  Ni  Ni2  1  0.00143628  0.99843821  0.33260733  1
  Ni  Ni3  1  0.00138476  0.33750708  0.99901658  1
  Fe  Fe4  1  0.16656515  0.50064225  0.16776000  1
  Ni  Ni5  1  0.00342002  0.33359243  0.33511107  1
  Fe  Fe6  1  0.99899728  0.66770665  0.00038662  1
  Fe  Fe7  1  0.16471088  0.83473878  0.16770749  1
  Ni  Ni8  1  0.00120656  0.66933043  0.33276606  1
  Cr  Cr9  1  0.33358610  0.99831778  0.99948676  1
  Fe  Fe10  1  0.50075962  0.16620867  0.16810071  1
  Ni  Ni11  1  0.33347921  0.00011389  0.33248916  1
  Ni  Ni12  1  0.33078346  0.33626804  0.00176716  1
  Fe  Fe13  1  0.49839888  0.49894508  0.16823158  1
  Ni  Ni14  1  0.33297799  0.33231483  0.33264134  1
  Ni  Ni15  1  0.33058608  0.66590006  0.00231988  1
  Ni  Ni16  1  0.49843275  0.82992069  0.16857756  1
  Fe  Fe17  1  0.33287959  0.66736326  0.33316207  1
  Cr  Cr18  1  0.66923251  0.99746319  0.00199060  1
  Cr  Cr19  1  0.83882666  0.16636967  0.16959225  1
  Ni  Ni20  1  0.66584753  0.99788260  0.33399732  1
  Ni  Ni21  1  0.66742681  0.33531092  0.00229465  1
  Cr  Cr22  1  0.83295846  0.50005661  0.16919602  1
  Ni  Ni23  1  0.66464823  0.33168956  0.33414757  1
  Fe  Fe24  1  0.66513105  0.66540163  0.00226136  1
  Ni  Ni25  1  0.83171880  0.83202682  0.16872359  1
  Ni  Ni26  1  0.66613594  0.66857761  0.33324791  1
  Ni  Ni27  1  0.16443691  0.16592079  0.49890291  1
  Ni  Ni28  1  0.99901826  0.99765281  0.66697316  1
  Ni  Ni29  1  0.16341173  0.16867151  0.83457208  1
  Ni  Ni30  1  0.16717765  0.49975010  0.49674858  1
  Ni  Ni31  1  0.00049787  0.33552851  0.66631684  1
  Ni  Ni32  1  0.16360929  0.50111099  0.83562106  1
  Ni  Ni33  1  0.16622249  0.83477573  0.49685278  1
  Ni  Ni34  1  0.99966063  0.66818353  0.66762329  1
  Ni  Ni35  1  0.16474095  0.83250290  0.83590784  1
  Fe  Fe36  1  0.49973270  0.16415845  0.49709606  1
  Cr  Cr37  1  0.33295329  0.99778147  0.66774879  1
  Cr  Cr38  1  0.49864533  0.16593965  0.83436526  1
  Ni  Ni39  1  0.49868761  0.50199510  0.49482874  1
  Cr  Cr40  1  0.32914660  0.33437686  0.66468245  1
  Cr  Cr41  1  0.50028162  0.50187818  0.83534745  1
  Ni  Ni42  1  0.50090571  0.83247403  0.49823967  1
  Cr  Cr43  1  0.32979616  0.66695931  0.66419759  1
  Ni  Ni44  1  0.50162787  0.82927389  0.83336863  1
  Ni  Ni45  1  0.83687584  0.16412414  0.49740900  1
  Ni  Ni46  1  0.66937388  0.99516233  0.66436027  1
  Cr  Cr47  1  0.83594227  0.16764236  0.83291576  1
  Cr  Cr48  1  0.83511403  0.50207652  0.49792261  1
  Cr  Cr49  1  0.66813779  0.33222578  0.66238294  1
  Ni  Ni50  1  0.83480182  0.50288084  0.83424160  1
  Ni  Ni51  1  0.83377981  0.83603834  0.49835775  1
  Fe  Fe52  1  0.66858260  0.66871022  0.66470804  1
  Ni  Ni53  1  0.83349870  0.83041132  0.83344919  1
" 