113,Ni20Fe60Cr20_11,-227.41000394915, 180.516773906939,Ni20Fe60Cr20,"# generated using pymatgen
 data_Cr6Fe16Ni5
_symmetry_space_group_name_H-M   'P 1'
_cell_length_a   7.46704761
_cell_length_b   7.46704761
_cell_length_c   10.56000000
_cell_angle_alpha   90.00000000
_cell_angle_beta   90.00000000
_cell_angle_gamma   90.00000000
_symmetry_Int_Tables_number   1
_chemical_formula_structural   Cr6Fe16Ni5
_chemical_formula_sum   'Cr12 Fe32 Ni10'
_cell_volume   588.79180800
_cell_formula_units_Z   2
loop_
 _symmetry_equiv_pos_site_id
 _symmetry_equiv_pos_as_xyz
  1  'x, y, z'
loop_
 _atom_site_type_symbol
 _atom_site_label
 _atom_site_symmetry_multiplicity
 _atom_site_fract_x
 _atom_site_fract_y
 _atom_site_fract_z
 _atom_site_occupancy
  Fe  Fe0  1  0.00116569  0.99833047  0.99653909  1
  Fe  Fe1  1  0.16923613  0.16663398  0.16391043  1
  Fe  Fe2  1  0.99861208  0.99881002  0.33583638  1
  Fe  Fe3  1  0.00105988  0.33434993  0.99810068  1
  Fe  Fe4  1  0.16436606  0.50300921  0.16462348  1
  Cr  Cr5  1  0.00031486  0.33422074  0.33139358  1
  Fe  Fe6  1  0.00130682  0.66651333  0.99782726  1
  Fe  Fe7  1  0.16635801  0.83361154  0.16509758  1
  Fe  Fe8  1  0.99909330  0.66895470  0.33468644  1
  Ni  Ni9  1  0.33070167  0.00191576  0.99888552  1
  Fe  Fe10  1  0.50008058  0.16561150  0.16469573  1
  Cr  Cr11  1  0.33279800  0.99980852  0.33376016  1
  Fe  Fe12  1  0.33238934  0.33344846  0.99796830  1
  Cr  Cr13  1  0.49661664  0.50137888  0.16570812  1
  Fe  Fe14  1  0.33454484  0.33420151  0.33241785  1
  Fe  Fe15  1  0.33130001  0.66660477  0.99793404  1
  Cr  Cr16  1  0.50090365  0.83345336  0.16423627  1
  Ni  Ni17  1  0.33039993  0.66777230  0.33318929  1
  Fe  Fe18  1  0.66645476  0.00013732  0.99757623  1
  Cr  Cr19  1  0.83504256  0.16403912  0.16467065  1
  Ni  Ni20  1  0.66624219  0.00064245  0.33611061  1
  Fe  Fe21  1  0.66525697  0.33229910  0.99852107  1
  Fe  Fe22  1  0.83304637  0.50143576  0.16505648  1
  Cr  Cr23  1  0.66782504  0.33375194  0.33427968  1
  Ni  Ni24  1  0.66969441  0.66261964  0.99953258  1
  Cr  Cr25  1  0.83255803  0.83360648  0.16728702  1
  Fe  Fe26  1  0.66474179  0.66841955  0.33595030  1
  Cr  Cr27  1  0.16659867  0.16923863  0.50242265  1
  Cr  Cr28  1  0.00064396  0.00052225  0.66805558  1
  Fe  Fe29  1  0.16842916  0.16744825  0.83323683  1
  Cr  Cr30  1  0.16882600  0.50114276  0.50215331  1
  Fe  Fe31  1  0.99712692  0.33557097  0.66831616  1
  Ni  Ni32  1  0.16610240  0.49870896  0.83225842  1
  Fe  Fe33  1  0.16665012  0.83228901  0.50188965  1
  Fe  Fe34  1  0.00150678  0.66718036  0.66829215  1
  Fe  Fe35  1  0.16844491  0.83158372  0.83322320  1
  Fe  Fe36  1  0.50210949  0.16648307  0.50271142  1
  Ni  Ni37  1  0.33445107  0.99896121  0.66740064  1
  Fe  Fe38  1  0.49857154  0.16710054  0.83297414  1
  Fe  Fe39  1  0.49989328  0.49956713  0.49954899  1
  Fe  Fe40  1  0.33610396  0.33297102  0.66987520  1
  Fe  Fe41  1  0.49887362  0.49864140  0.83480721  1
  Fe  Fe42  1  0.49925804  0.83341379  0.50162498  1
  Ni  Ni43  1  0.33333093  0.66582950  0.66866850  1
  Cr  Cr44  1  0.50176326  0.83304058  0.83522612  1
  Ni  Ni45  1  0.83141027  0.16599759  0.50191063  1
  Ni  Ni46  1  0.66655479  0.00117967  0.66731387  1
  Fe  Fe47  1  0.83211034  0.16781537  0.83317887  1
  Ni  Ni48  1  0.83428502  0.50017189  0.50045578  1
  Fe  Fe49  1  0.66583852  0.33080329  0.66595673  1
  Fe  Fe50  1  0.83384252  0.49924710  0.83361116  1
  Fe  Fe51  1  0.83285512  0.83449668  0.49955485  1
  Cr  Cr52  1  0.66750101  0.66364176  0.66489254  1
  Fe  Fe53  1  0.83480868  0.83137314  0.83464557  1
" 