253,Ni20Fe60Cr20_3,-227.633723077507, 175.24623175035,Ni20Fe60Cr20,"# generated using pymatgen
 data_Cr6Fe16Ni5
_symmetry_space_group_name_H-M   'P 1'
_cell_length_a   7.46704761
_cell_length_b   7.46704761
_cell_length_c   10.56000000
_cell_angle_alpha   90.00000000
_cell_angle_beta   90.00000000
_cell_angle_gamma   90.00000000
_symmetry_Int_Tables_number   1
_chemical_formula_structural   Cr6Fe16Ni5
_chemical_formula_sum   'Cr12 Fe32 Ni10'
_cell_volume   588.79180800
_cell_formula_units_Z   2
loop_
 _symmetry_equiv_pos_site_id
 _symmetry_equiv_pos_as_xyz
  1  'x, y, z'
loop_
 _atom_site_type_symbol
 _atom_site_label
 _atom_site_symmetry_multiplicity
 _atom_site_fract_x
 _atom_site_fract_y
 _atom_site_fract_z
 _atom_site_occupancy
  Ni  Ni0  1  0.00357527  0.99747737  0.00216197  1
  Ni  Ni1  1  0.16945673  0.16854467  0.16449460  1
  Cr  Cr2  1  0.99884606  0.99899643  0.33257733  1
  Fe  Fe3  1  0.99855615  0.33439388  0.00283856  1
  Fe  Fe4  1  0.16454429  0.50019626  0.16680375  1
  Fe  Fe5  1  0.00048727  0.33174629  0.33107144  1
  Ni  Ni6  1  0.00074956  0.66639987  0.00031790  1
  Fe  Fe7  1  0.16582018  0.83127539  0.16473136  1
  Fe  Fe8  1  0.99763131  0.66423910  0.33182501  1
  Fe  Fe9  1  0.33205331  0.99806736  0.00210166  1
  Fe  Fe10  1  0.50062820  0.16926899  0.16850328  1
  Cr  Cr11  1  0.33177856  0.99989417  0.33423263  1
  Fe  Fe12  1  0.33150936  0.33356123  0.00183878  1
  Fe  Fe13  1  0.49875727  0.50088284  0.16835256  1
  Fe  Fe14  1  0.33369695  0.33220629  0.33254659  1
  Fe  Fe15  1  0.33344330  0.66865816  0.00071490  1
  Fe  Fe16  1  0.49715039  0.83173677  0.16877247  1
  Fe  Fe17  1  0.33429941  0.66616599  0.33266200  1
  Cr  Cr18  1  0.66473699  0.00200159  0.00256941  1
  Fe  Fe19  1  0.83610067  0.16979727  0.16575791  1
  Fe  Fe20  1  0.66548382  0.00053622  0.33443208  1
  Cr  Cr21  1  0.66354425  0.33755957  0.99831981  1
  Ni  Ni22  1  0.83189621  0.50091553  0.16662806  1
  Fe  Fe23  1  0.66898708  0.33309991  0.33253394  1
  Fe  Fe24  1  0.66636726  0.66690168  0.00026516  1
  Cr  Cr25  1  0.82982463  0.83223047  0.16664111  1
  Fe  Fe26  1  0.66600036  0.66637966  0.33445353  1
  Ni  Ni27  1  0.16695619  0.16775871  0.50140550  1
  Ni  Ni28  1  0.00035519  0.99727181  0.66541583  1
  Cr  Cr29  1  0.16843050  0.16424668  0.83398997  1
  Cr  Cr30  1  0.16670602  0.49731989  0.49737343  1
  Fe  Fe31  1  0.99905176  0.33211300  0.66555688  1
  Cr  Cr32  1  0.16444712  0.49988889  0.83496603  1
  Cr  Cr33  1  0.16550718  0.83161431  0.50165799  1
  Fe  Fe34  1  0.99811546  0.66579085  0.66769525  1
  Ni  Ni35  1  0.16911012  0.83325408  0.83387288  1
  Fe  Fe36  1  0.50241857  0.16568965  0.49939198  1
  Fe  Fe37  1  0.33423998  0.99888358  0.66513435  1
  Fe  Fe38  1  0.50067129  0.16598581  0.83233671  1
  Fe  Fe39  1  0.50244382  0.50194787  0.49804045  1
  Cr  Cr40  1  0.33836247  0.33461742  0.66538684  1
  Fe  Fe41  1  0.50008936  0.50473751  0.83258236  1
  Ni  Ni42  1  0.50326229  0.83308357  0.49996331  1
  Fe  Fe43  1  0.33435842  0.66979407  0.66687204  1
  Fe  Fe44  1  0.49847435  0.83387466  0.83181085  1
  Fe  Fe45  1  0.83486488  0.16448162  0.50130373  1
  Fe  Fe46  1  0.66677061  0.00002877  0.66490445  1
  Cr  Cr47  1  0.83584149  0.16732115  0.83452018  1
  Fe  Fe48  1  0.83280325  0.50025884  0.49919669  1
  Fe  Fe49  1  0.67084231  0.33414126  0.66655017  1
  Ni  Ni50  1  0.83051047  0.50177298  0.83279282  1
  Ni  Ni51  1  0.82958361  0.83212955  0.50006299  1
  Fe  Fe52  1  0.66659899  0.66642950  0.66496660  1
  Cr  Cr53  1  0.83325949  0.83243102  0.83410193  1
" 