36,Ni20Fe60Cr20_5,-227.433104223786, 182.4616772135,Ni20Fe60Cr20,"# generated using pymatgen
 data_Cr6Fe16Ni5
_symmetry_space_group_name_H-M   'P 1'
_cell_length_a   7.46704761
_cell_length_b   7.46704761
_cell_length_c   10.56000000
_cell_angle_alpha   90.00000000
_cell_angle_beta   90.00000000
_cell_angle_gamma   90.00000000
_symmetry_Int_Tables_number   1
_chemical_formula_structural   Cr6Fe16Ni5
_chemical_formula_sum   'Cr12 Fe32 Ni10'
_cell_volume   588.79180800
_cell_formula_units_Z   2
loop_
 _symmetry_equiv_pos_site_id
 _symmetry_equiv_pos_as_xyz
  1  'x, y, z'
loop_
 _atom_site_type_symbol
 _atom_site_label
 _atom_site_symmetry_multiplicity
 _atom_site_fract_x
 _atom_site_fract_y
 _atom_site_fract_z
 _atom_site_occupancy
  Fe  Fe0  1  0.99881433  0.99981892  0.00080415  1
  Ni  Ni1  1  0.16611336  0.16680250  0.16525506  1
  Fe  Fe2  1  0.00112569  0.00250523  0.33506179  1
  Fe  Fe3  1  0.00016680  0.32905481  0.99961610  1
  Fe  Fe4  1  0.16614930  0.49702539  0.16422630  1
  Fe  Fe5  1  0.00243185  0.32968574  0.33530411  1
  Fe  Fe6  1  0.00045401  0.66892315  0.99883349  1
  Cr  Cr7  1  0.16805714  0.83403791  0.16653490  1
  Cr  Cr8  1  0.99919052  0.66310713  0.33546541  1
  Fe  Fe9  1  0.33508795  0.00145442  0.00081600  1
  Fe  Fe10  1  0.49806693  0.16579821  0.16739910  1
  Ni  Ni11  1  0.33346759  0.00266529  0.33285394  1
  Fe  Fe12  1  0.33512371  0.33040709  0.00049488  1
  Cr  Cr13  1  0.49701585  0.50202768  0.16835998  1
  Fe  Fe14  1  0.33018197  0.33208767  0.33499918  1
  Fe  Fe15  1  0.33478441  0.66996885  0.99872257  1
  Fe  Fe16  1  0.50079077  0.83710093  0.16934888  1
  Fe  Fe17  1  0.33334988  0.66607439  0.33529210  1
  Ni  Ni18  1  0.66447600  0.00193309  0.00367274  1
  Fe  Fe19  1  0.83494708  0.16401943  0.16545906  1
  Fe  Fe20  1  0.66894322  0.99855189  0.33200961  1
  Fe  Fe21  1  0.66378149  0.33098284  0.99816134  1
  Cr  Cr22  1  0.83353309  0.49786467  0.16238155  1
  Cr  Cr23  1  0.66875520  0.33134601  0.33488308  1
  Cr  Cr24  1  0.66595402  0.66933347  0.99888529  1
  Fe  Fe25  1  0.83307258  0.83566056  0.16799020  1
  Fe  Fe26  1  0.66714015  0.66628261  0.33545907  1
  Ni  Ni27  1  0.16783449  0.16628861  0.50034327  1
  Fe  Fe28  1  0.00117340  0.99796949  0.66357237  1
  Fe  Fe29  1  0.16837382  0.16388924  0.83298956  1
  Fe  Fe30  1  0.16660043  0.50041057  0.50073877  1
  Cr  Cr31  1  0.99905183  0.33375841  0.66393681  1
  Cr  Cr32  1  0.16763095  0.49946138  0.83670855  1
  Fe  Fe33  1  0.16520888  0.83500544  0.49878856  1
  Ni  Ni34  1  0.99943486  0.66832885  0.66686540  1
  Fe  Fe35  1  0.16684829  0.83681154  0.83396408  1
  Fe  Fe36  1  0.50010731  0.16759049  0.50060301  1
  Fe  Fe37  1  0.33331489  0.00372669  0.66494914  1
  Fe  Fe38  1  0.49882179  0.16574895  0.83319540  1
  Ni  Ni39  1  0.50025808  0.49841079  0.50131033  1
  Fe  Fe40  1  0.33487906  0.33454307  0.66570111  1
  Fe  Fe41  1  0.50231771  0.49957296  0.83141273  1
  Cr  Cr42  1  0.50222923  0.83310863  0.49723648  1
  Cr  Cr43  1  0.33215634  0.67104710  0.66620631  1
  Fe  Fe44  1  0.49959063  0.83740955  0.83257844  1
  Fe  Fe45  1  0.83187123  0.16503363  0.50158148  1
  Fe  Fe46  1  0.66620408  0.99870453  0.66552651  1
  Cr  Cr47  1  0.83273090  0.16518543  0.83276387  1
  Ni  Ni48  1  0.83083058  0.50100991  0.50417621  1
  Ni  Ni49  1  0.66432182  0.33227694  0.66795511  1
  Fe  Fe50  1  0.83228132  0.49957613  0.83165385  1
  Ni  Ni51  1  0.83421538  0.83285464  0.50066716  1
  Ni  Ni52  1  0.66747755  0.66448910  0.66556490  1
  Cr  Cr53  1  0.83326023  0.83326804  0.83072075  1
" 