346,Ni20Fe20Cr60_5,-232.818575213928, 186.416733804878,Ni20Fe20Cr60,"# generated using pymatgen
 data_Cr6Fe5Ni16
_symmetry_space_group_name_H-M   'P 1'
_cell_length_a   7.46704761
_cell_length_b   7.46704761
_cell_length_c   10.56000000
_cell_angle_alpha   90.00000000
_cell_angle_beta   90.00000000
_cell_angle_gamma   90.00000000
_symmetry_Int_Tables_number   1
_chemical_formula_structural   Cr6Fe5Ni16
_chemical_formula_sum   'Cr12 Fe10 Ni32'
_cell_volume   588.79180800
_cell_formula_units_Z   2
loop_
 _symmetry_equiv_pos_site_id
 _symmetry_equiv_pos_as_xyz
  1  'x, y, z'
loop_
 _atom_site_type_symbol
 _atom_site_label
 _atom_site_symmetry_multiplicity
 _atom_site_fract_x
 _atom_site_fract_y
 _atom_site_fract_z
 _atom_site_occupancy
  Ni  Ni0  1  0.00085560  0.00167349  0.00070421  1
  Ni  Ni1  1  0.16675826  0.16622113  0.16651846  1
  Ni  Ni2  1  0.99952640  0.00302235  0.33411594  1
  Ni  Ni3  1  0.99985056  0.33048337  0.00120714  1
  Cr  Cr4  1  0.16688920  0.49561917  0.16720061  1
  Fe  Fe5  1  0.99980075  0.33223597  0.33386262  1
  Cr  Cr6  1  0.99633065  0.66825888  0.99929029  1
  Cr  Cr7  1  0.16905643  0.83561555  0.16656023  1
  Cr  Cr8  1  0.99843402  0.66916697  0.33651239  1
  Ni  Ni9  1  0.33243191  0.00165880  0.99837194  1
  Cr  Cr10  1  0.49863755  0.16390571  0.16868162  1
  Ni  Ni11  1  0.33168228  0.00229654  0.33558650  1
  Ni  Ni12  1  0.33274831  0.33099309  0.99801721  1
  Fe  Fe13  1  0.49879359  0.50116614  0.16794284  1
  Ni  Ni14  1  0.33357780  0.33194747  0.33646547  1
  Ni  Ni15  1  0.33603535  0.66641270  0.99983425  1
  Fe  Fe16  1  0.50090045  0.83191640  0.16820113  1
  Ni  Ni17  1  0.33504243  0.66445901  0.33535928  1
  Ni  Ni18  1  0.66744474  0.99853378  0.00125092  1
  Fe  Fe19  1  0.83602651  0.16542914  0.16766283  1
  Ni  Ni20  1  0.66936372  0.99981487  0.33463645  1
  Cr  Cr21  1  0.66510694  0.33514209  0.99943785  1
  Ni  Ni22  1  0.83052488  0.49999543  0.16730171  1
  Fe  Fe23  1  0.66649674  0.33319909  0.33541313  1
  Ni  Ni24  1  0.66548743  0.66696956  0.00210510  1
  Ni  Ni25  1  0.82959075  0.83452544  0.16792957  1
  Ni  Ni26  1  0.66724501  0.66493314  0.33220302  1
  Ni  Ni27  1  0.16551303  0.16635997  0.49784956  1
  Fe  Fe28  1  0.00148199  0.00151279  0.66444385  1
  Ni  Ni29  1  0.16744598  0.16423784  0.83581533  1
  Ni  Ni30  1  0.16731970  0.50008606  0.49928759  1
  Fe  Fe31  1  0.00088249  0.33360031  0.66521779  1
  Cr  Cr32  1  0.16588321  0.49995888  0.83444803  1
  Ni  Ni33  1  0.16645948  0.83436059  0.50087597  1
  Fe  Fe34  1  0.00174795  0.66583070  0.66428277  1
  Ni  Ni35  1  0.16778484  0.83538032  0.83228396  1
  Ni  Ni36  1  0.50125455  0.16675930  0.49998988  1
  Ni  Ni37  1  0.32872871  0.00078035  0.66620442  1
  Ni  Ni38  1  0.49933380  0.16618495  0.83217899  1
  Ni  Ni39  1  0.50217345  0.49940637  0.49784770  1
  Cr  Cr40  1  0.33748892  0.33126553  0.66640761  1
  Ni  Ni41  1  0.50208691  0.50091388  0.83373190  1
  Cr  Cr42  1  0.49898194  0.83368717  0.49813815  1
  Ni  Ni43  1  0.33386215  0.66720540  0.66483164  1
  Cr  Cr44  1  0.49876523  0.83398606  0.83412383  1
  Ni  Ni45  1  0.83296018  0.16796234  0.49860574  1
  Fe  Fe46  1  0.66302453  0.00231718  0.66443388  1
  Cr  Cr47  1  0.83336889  0.16842800  0.83360443  1
  Ni  Ni48  1  0.83367563  0.49849459  0.50077067  1
  Ni  Ni49  1  0.66917450  0.33498007  0.66508627  1
  Ni  Ni50  1  0.83139917  0.50019598  0.83202842  1
  Fe  Fe51  1  0.83296895  0.83479416  0.50032484  1
  Ni  Ni52  1  0.66892042  0.66235058  0.66494785  1
  Cr  Cr53  1  0.83267516  0.83336539  0.82986619  1
" 