22,Ni20Fe20Cr60_12,-232.437187696549, 184.136473939394,Ni20Fe20Cr60,"# generated using pymatgen
 data_Cr6Fe5Ni16
_symmetry_space_group_name_H-M   'P 1'
_cell_length_a   7.46704761
_cell_length_b   7.46704761
_cell_length_c   10.56000000
_cell_angle_alpha   90.00000000
_cell_angle_beta   90.00000000
_cell_angle_gamma   90.00000000
_symmetry_Int_Tables_number   1
_chemical_formula_structural   Cr6Fe5Ni16
_chemical_formula_sum   'Cr12 Fe10 Ni32'
_cell_volume   588.79180800
_cell_formula_units_Z   2
loop_
 _symmetry_equiv_pos_site_id
 _symmetry_equiv_pos_as_xyz
  1  'x, y, z'
loop_
 _atom_site_type_symbol
 _atom_site_label
 _atom_site_symmetry_multiplicity
 _atom_site_fract_x
 _atom_site_fract_y
 _atom_site_fract_z
 _atom_site_occupancy
  Fe  Fe0  1  0.99809739  0.00003209  0.00134434  1
  Ni  Ni1  1  0.16530945  0.16667165  0.16540453  1
  Ni  Ni2  1  0.99753869  0.00047334  0.33203830  1
  Ni  Ni3  1  0.99965255  0.33394483  0.00010473  1
  Cr  Cr4  1  0.16646943  0.49909316  0.16697683  1
  Fe  Fe5  1  0.99953601  0.33190080  0.33424773  1
  Ni  Ni6  1  0.00141131  0.66746929  0.99870038  1
  Fe  Fe7  1  0.16464717  0.83485739  0.16564175  1
  Ni  Ni8  1  0.99719731  0.66877431  0.33501703  1
  Fe  Fe9  1  0.33222886  0.99991348  0.99979430  1
  Ni  Ni10  1  0.49918072  0.16822151  0.16689809  1
  Cr  Cr11  1  0.33252704  0.00280705  0.33438921  1
  Fe  Fe12  1  0.33492064  0.33408675  0.00090536  1
  Ni  Ni13  1  0.50007449  0.49762871  0.16684894  1
  Ni  Ni14  1  0.33321837  0.33188313  0.33329938  1
  Fe  Fe15  1  0.33455485  0.66447856  0.99828518  1
  Cr  Cr16  1  0.50374176  0.82962247  0.16703377  1
  Cr  Cr17  1  0.33138350  0.66359145  0.33731380  1
  Cr  Cr18  1  0.66690383  0.00182212  0.99964351  1
  Ni  Ni19  1  0.83459727  0.16601960  0.16777616  1
  Ni  Ni20  1  0.66923491  0.00125104  0.33337319  1
  Ni  Ni21  1  0.66681080  0.33364594  0.00001874  1
  Cr  Cr22  1  0.83138865  0.50249077  0.16768346  1
  Fe  Fe23  1  0.66631214  0.33242631  0.33370018  1
  Ni  Ni24  1  0.66869251  0.66559626  0.99836679  1
  Ni  Ni25  1  0.83568470  0.83436857  0.16756908  1
  Ni  Ni26  1  0.66876326  0.66717333  0.33468552  1
  Ni  Ni27  1  0.16362664  0.16909217  0.49883580  1
  Fe  Fe28  1  0.99817537  0.99974474  0.66538197  1
  Cr  Cr29  1  0.16398256  0.16798788  0.83340096  1
  Ni  Ni30  1  0.16301165  0.49750372  0.49909267  1
  Ni  Ni31  1  0.99789623  0.33519150  0.66586593  1
  Ni  Ni32  1  0.16593937  0.50151399  0.83404644  1
  Fe  Fe33  1  0.16197931  0.83415692  0.50008685  1
  Ni  Ni34  1  0.00002160  0.66548930  0.66691626  1
  Ni  Ni35  1  0.16455890  0.83150214  0.83446173  1
  Ni  Ni36  1  0.50147043  0.16807815  0.49786353  1
  Cr  Cr37  1  0.33399981  0.00007219  0.66428585  1
  Ni  Ni38  1  0.50114861  0.16871367  0.83491979  1
  Ni  Ni39  1  0.50204665  0.49834718  0.49722607  1
  Cr  Cr40  1  0.33487790  0.33444857  0.66495545  1
  Ni  Ni41  1  0.50066767  0.49924015  0.83624595  1
  Ni  Ni42  1  0.50389947  0.83312735  0.49845099  1
  Cr  Cr43  1  0.33111189  0.66626493  0.66411265  1
  Ni  Ni44  1  0.49921864  0.83153932  0.83505625  1
  Ni  Ni45  1  0.83478551  0.16666522  0.49907714  1
  Cr  Cr46  1  0.66678914  0.00182087  0.66732671  1
  Ni  Ni47  1  0.83352741  0.16788049  0.83319777  1
  Ni  Ni48  1  0.83475106  0.49999686  0.49986549  1
  Ni  Ni49  1  0.66955891  0.33203636  0.66719316  1
  Fe  Fe50  1  0.83490152  0.49873952  0.83449092  1
  Ni  Ni51  1  0.83370768  0.83316428  0.49810127  1
  Cr  Cr52  1  0.66880351  0.66447158  0.66812449  1
  Ni  Ni53  1  0.83546499  0.83296704  0.83435762  1
" 