428,Ni20Fe40Cr40_4,-231.565292555001, 196.626216411333,Ni20Fe40Cr40,"# generated using pymatgen
 data_Cr4(FeNi)7
_symmetry_space_group_name_H-M   'P 1'
_cell_length_a   7.46704761
_cell_length_b   7.46704761
_cell_length_c   10.56000000
_cell_angle_alpha   90.00000000
_cell_angle_beta   90.00000000
_cell_angle_gamma   90.00000000
_symmetry_Int_Tables_number   1
_chemical_formula_structural   Cr4(FeNi)7
_chemical_formula_sum   'Cr12 Fe21 Ni21'
_cell_volume   588.79180800
_cell_formula_units_Z   3
loop_
 _symmetry_equiv_pos_site_id
 _symmetry_equiv_pos_as_xyz
  1  'x, y, z'
loop_
 _atom_site_type_symbol
 _atom_site_label
 _atom_site_symmetry_multiplicity
 _atom_site_fract_x
 _atom_site_fract_y
 _atom_site_fract_z
 _atom_site_occupancy
  Fe  Fe0  1  0.00080364  0.00384719  0.99940992  1
  Fe  Fe1  1  0.16711440  0.16783696  0.16620176  1
  Ni  Ni2  1  0.99841398  0.00335102  0.33402738  1
  Ni  Ni3  1  0.99922432  0.33052307  0.99899407  1
  Fe  Fe4  1  0.16819389  0.49803769  0.16496979  1
  Ni  Ni5  1  0.99973213  0.32837560  0.33277487  1
  Cr  Cr6  1  0.99798060  0.66748424  0.00253265  1
  Cr  Cr7  1  0.17015428  0.84003593  0.16576295  1
  Cr  Cr8  1  0.99994621  0.66925276  0.33156235  1
  Ni  Ni9  1  0.33717846  0.00286800  0.99691931  1
  Fe  Fe10  1  0.50074909  0.16558566  0.16708024  1
  Ni  Ni11  1  0.33442313  0.00169886  0.33646198  1
  Ni  Ni12  1  0.33549855  0.33296195  0.00216749  1
  Fe  Fe13  1  0.50053208  0.49937900  0.16478484  1
  Fe  Fe14  1  0.33436395  0.32931141  0.33275774  1
  Ni  Ni15  1  0.33714952  0.66758479  0.00086577  1
  Ni  Ni16  1  0.50070648  0.83804345  0.16472238  1
  Cr  Cr17  1  0.33465312  0.66574367  0.33210050  1
  Fe  Fe18  1  0.66631419  0.99959368  0.99961095  1
  Fe  Fe19  1  0.83250257  0.16368665  0.16654765  1
  Ni  Ni20  1  0.66592415  0.00268090  0.33241744  1
  Ni  Ni21  1  0.66618520  0.32987052  0.99753881  1
  Cr  Cr22  1  0.83155302  0.49396896  0.16731390  1
  Ni  Ni23  1  0.66488695  0.32895845  0.33522181  1
  Fe  Fe24  1  0.66416508  0.66487737  0.99999426  1
  Ni  Ni25  1  0.83088977  0.83759558  0.16566817  1
  Cr  Cr26  1  0.66480528  0.66943903  0.33330242  1
  Fe  Fe27  1  0.16681016  0.16413803  0.49988450  1
  Ni  Ni28  1  0.99763744  0.99989216  0.66632114  1
  Fe  Fe29  1  0.16750176  0.16776403  0.83451615  1
  Cr  Cr30  1  0.16523845  0.49876236  0.49905476  1
  Fe  Fe31  1  0.00028263  0.33116178  0.66851992  1
  Cr  Cr32  1  0.16633361  0.50065089  0.83577372  1
  Fe  Fe33  1  0.16716042  0.83528821  0.50178731  1
  Ni  Ni34  1  0.99869661  0.66846489  0.66626245  1
  Cr  Cr35  1  0.16929618  0.83654108  0.83188614  1
  Ni  Ni36  1  0.49998536  0.16506252  0.49862627  1
  Fe  Fe37  1  0.33178972  0.99818518  0.66547878  1
  Fe  Fe38  1  0.50016305  0.16821339  0.83489908  1
  Ni  Ni39  1  0.50090767  0.49833247  0.50000106  1
  Cr  Cr40  1  0.33759702  0.33241111  0.66746602  1
  Ni  Ni41  1  0.50372850  0.50090015  0.83475557  1
  Ni  Ni42  1  0.49761678  0.83569581  0.50066072  1
  Ni  Ni43  1  0.33493393  0.66594575  0.66612323  1
  Ni  Ni44  1  0.50015377  0.83378549  0.83438831  1
  Fe  Fe45  1  0.83193084  0.16514528  0.49888162  1
  Cr  Cr46  1  0.66482104  0.00275891  0.66736398  1
  Fe  Fe47  1  0.83393347  0.16660620  0.83398586  1
  Cr  Cr48  1  0.83229951  0.49694303  0.50213484  1
  Fe  Fe49  1  0.66751694  0.33492292  0.66748943  1
  Ni  Ni50  1  0.83177106  0.49652763  0.83176246  1
  Fe  Fe51  1  0.83146143  0.83585946  0.49981106  1
  Fe  Fe52  1  0.66444165  0.66742216  0.66730072  1
  Fe  Fe53  1  0.83194693  0.83002672  0.83315352  1
" 