262,Ni20Fe40Cr40_13,-231.366446015956, 192.065670437204,Ni20Fe40Cr40,"# generated using pymatgen
 data_Cr4(FeNi)7
_symmetry_space_group_name_H-M   'P 1'
_cell_length_a   7.46704761
_cell_length_b   7.46704761
_cell_length_c   10.56000000
_cell_angle_alpha   90.00000000
_cell_angle_beta   90.00000000
_cell_angle_gamma   90.00000000
_symmetry_Int_Tables_number   1
_chemical_formula_structural   Cr4(FeNi)7
_chemical_formula_sum   'Cr12 Fe21 Ni21'
_cell_volume   588.79180800
_cell_formula_units_Z   3
loop_
 _symmetry_equiv_pos_site_id
 _symmetry_equiv_pos_as_xyz
  1  'x, y, z'
loop_
 _atom_site_type_symbol
 _atom_site_label
 _atom_site_symmetry_multiplicity
 _atom_site_fract_x
 _atom_site_fract_y
 _atom_site_fract_z
 _atom_site_occupancy
  Ni  Ni0  1  0.00230108  0.99905133  0.00107774  1
  Ni  Ni1  1  0.16868373  0.16250341  0.16726883  1
  Ni  Ni2  1  0.00432891  0.99832494  0.33451997  1
  Ni  Ni3  1  0.00117131  0.33156566  0.00052312  1
  Fe  Fe4  1  0.16275252  0.50099268  0.16602383  1
  Cr  Cr5  1  0.00001659  0.33170232  0.33171364  1
  Ni  Ni6  1  0.99817241  0.66709097  0.99998889  1
  Ni  Ni7  1  0.16638534  0.83237038  0.16735117  1
  Ni  Ni8  1  0.99854944  0.66857248  0.33409277  1
  Fe  Fe9  1  0.33303773  0.99779306  0.99949555  1
  Cr  Cr10  1  0.50051695  0.16588385  0.16896115  1
  Fe  Fe11  1  0.33311233  0.99740976  0.33515802  1
  Cr  Cr12  1  0.33250212  0.33405721  0.99932837  1
  Fe  Fe13  1  0.49630331  0.50185486  0.16989737  1
  Fe  Fe14  1  0.33305375  0.33319978  0.33403519  1
  Fe  Fe15  1  0.32781860  0.66866865  0.99991958  1
  Fe  Fe16  1  0.49718508  0.83225484  0.16901121  1
  Fe  Fe17  1  0.33139808  0.66658206  0.33363657  1
  Fe  Fe18  1  0.67080121  0.00085945  0.99960111  1
  Fe  Fe19  1  0.83871466  0.16626279  0.16726087  1
  Cr  Cr20  1  0.67074096  0.99937112  0.33301000  1
  Cr  Cr21  1  0.66934511  0.33450676  0.00154775  1
  Ni  Ni22  1  0.83172417  0.50260975  0.16843889  1
  Ni  Ni23  1  0.66386184  0.33653272  0.33369047  1
  Cr  Cr24  1  0.66320256  0.66996571  0.00311256  1
  Fe  Fe25  1  0.83814883  0.83357594  0.16714860  1
  Ni  Ni26  1  0.66441634  0.66632016  0.33296955  1
  Ni  Ni27  1  0.16837945  0.16461385  0.49615945  1
  Cr  Cr28  1  0.00052937  0.99987734  0.66304378  1
  Ni  Ni29  1  0.16993379  0.16384705  0.83617113  1
  Fe  Fe30  1  0.16727243  0.49920130  0.49789210  1
  Cr  Cr31  1  0.00149116  0.33154747  0.66802032  1
  Fe  Fe32  1  0.16239089  0.50041310  0.83591674  1
  Ni  Ni33  1  0.16744325  0.83105908  0.49678604  1
  Cr  Cr34  1  0.99719672  0.66739336  0.66440290  1
  Ni  Ni35  1  0.16472793  0.83364744  0.83604135  1
  Ni  Ni36  1  0.50183601  0.16762788  0.49858350  1
  Cr  Cr37  1  0.33343753  0.00056900  0.66515503  1
  Ni  Ni38  1  0.50368370  0.16670647  0.83222852  1
  Fe  Fe39  1  0.49978825  0.50044101  0.49829691  1
  Cr  Cr40  1  0.33405037  0.33231512  0.66618776  1
  Fe  Fe41  1  0.50121950  0.50150155  0.83311336  1
  Ni  Ni42  1  0.49951269  0.83217807  0.49935652  1
  Cr  Cr43  1  0.33317884  0.66729838  0.66940124  1
  Fe  Fe44  1  0.50173770  0.83607354  0.83292165  1
  Ni  Ni45  1  0.83199834  0.17084250  0.49915135  1
  Fe  Fe46  1  0.66718034  0.99969597  0.66493233  1
  Fe  Fe47  1  0.83654552  0.16383344  0.83433581  1
  Fe  Fe48  1  0.83001004  0.50133927  0.49787900  1
  Fe  Fe49  1  0.66755854  0.33414644  0.66569790  1
  Ni  Ni50  1  0.83084710  0.50104624  0.83293755  1
  Fe  Fe51  1  0.83183762  0.83510212  0.49841500  1
  Ni  Ni52  1  0.66482435  0.66738702  0.66499184  1
  Ni  Ni53  1  0.83314356  0.83041336  0.83319810  1
" 