264,Ni40Fe20Cr40_2,-223.54901222685, 170.353811740847,Ni40Fe20Cr40,"# generated using pymatgen
 data_Cr23Fe10Ni21
_symmetry_space_group_name_H-M   'P 1'
_cell_length_a   7.46704761
_cell_length_b   7.46704761
_cell_length_c   10.56000000
_cell_angle_alpha   90.00000000
_cell_angle_beta   90.00000000
_cell_angle_gamma   90.00000000
_symmetry_Int_Tables_number   1
_chemical_formula_structural   Cr23Fe10Ni21
_chemical_formula_sum   'Cr23 Fe10 Ni21'
_cell_volume   588.79180800
_cell_formula_units_Z   1
loop_
 _symmetry_equiv_pos_site_id
 _symmetry_equiv_pos_as_xyz
  1  'x, y, z'
loop_
 _atom_site_type_symbol
 _atom_site_label
 _atom_site_symmetry_multiplicity
 _atom_site_fract_x
 _atom_site_fract_y
 _atom_site_fract_z
 _atom_site_occupancy
  Cr  Cr0  1  0.00127386  0.99812954  0.99570301  1
  Cr  Cr1  1  0.16626315  0.16459917  0.16646488  1
  Fe  Fe2  1  0.00209054  0.99873864  0.33470933  1
  Cr  Cr3  1  0.99852809  0.33552808  0.99602348  1
  Fe  Fe4  1  0.16554723  0.50337535  0.16623628  1
  Ni  Ni5  1  0.99963703  0.33329173  0.33458584  1
  Ni  Ni6  1  0.00089223  0.66938419  0.99907451  1
  Ni  Ni7  1  0.16607202  0.83228754  0.16494975  1
  Ni  Ni8  1  0.00265665  0.66821428  0.33134220  1
  Ni  Ni9  1  0.33367090  0.99754777  0.99661500  1
  Ni  Ni10  1  0.49818943  0.16749148  0.16604622  1
  Cr  Cr11  1  0.33245288  0.00007447  0.33481100  1
  Cr  Cr12  1  0.33343246  0.33221125  0.00343060  1
  Ni  Ni13  1  0.49840070  0.50137289  0.16513682  1
  Cr  Cr14  1  0.33298135  0.33496720  0.33270181  1
  Ni  Ni15  1  0.33148537  0.66803559  0.00130278  1
  Cr  Cr16  1  0.50088192  0.83497007  0.16116361  1
  Cr  Cr17  1  0.33223839  0.66764492  0.33408329  1
  Cr  Cr18  1  0.66712839  0.00074041  0.99688805  1
  Cr  Cr19  1  0.83380753  0.16455037  0.16849752  1
  Cr  Cr20  1  0.66752692  0.00058374  0.33404978  1
  Cr  Cr21  1  0.66531097  0.33372526  0.99864925  1
  Cr  Cr22  1  0.83449882  0.50201106  0.16524177  1
  Cr  Cr23  1  0.66425741  0.33316597  0.33501291  1
  Fe  Fe24  1  0.66811451  0.66717433  0.99726897  1
  Ni  Ni25  1  0.83863502  0.83159619  0.16644571  1
  Cr  Cr26  1  0.66643128  0.66680564  0.33259572  1
  Fe  Fe27  1  0.16328955  0.16524012  0.50203145  1
  Cr  Cr28  1  0.99951189  0.99807250  0.66916743  1
  Fe  Fe29  1  0.16882755  0.16676235  0.83168800  1
  Cr  Cr30  1  0.16558389  0.49997533  0.50264184  1
  Ni  Ni31  1  0.99885784  0.33169522  0.66911712  1
  Cr  Cr32  1  0.16680075  0.50008115  0.83183465  1
  Ni  Ni33  1  0.16707667  0.83346003  0.50252316  1
  Ni  Ni34  1  0.00313927  0.66672911  0.66893345  1
  Fe  Fe35  1  0.16980857  0.83071628  0.83309087  1
  Fe  Fe36  1  0.49901446  0.16718012  0.50430005  1
  Ni  Ni37  1  0.33214243  0.00021569  0.66965330  1
  Ni  Ni38  1  0.49674916  0.16311649  0.83070656  1
  Fe  Fe39  1  0.49969248  0.49960312  0.50353587  1
  Ni  Ni40  1  0.33313671  0.33023651  0.66426109  1
  Cr  Cr41  1  0.49882576  0.49801977  0.83069117  1
  Cr  Cr42  1  0.49811830  0.83630294  0.50729788  1
  Ni  Ni43  1  0.33163341  0.66714949  0.66599827  1
  Fe  Fe44  1  0.49885754  0.83248319  0.83225787  1
  Ni  Ni45  1  0.83296829  0.16726978  0.50226798  1
  Ni  Ni46  1  0.66544655  0.00381128  0.66942421  1
  Fe  Fe47  1  0.83018054  0.16927800  0.82960485  1
  Cr  Cr48  1  0.83627879  0.49771913  0.50327967  1
  Ni  Ni49  1  0.66587205  0.33055233  0.66625608  1
  Ni  Ni50  1  0.83555598  0.50235698  0.83074657  1
  Cr  Cr51  1  0.83669607  0.83438185  0.49827543  1
  Cr  Cr52  1  0.66959949  0.66760595  0.66822471  1
  Ni  Ni53  1  0.83393099  0.83176819  0.83316040  1
" 