398,Ni40Fe40Cr20_3,-221.691003806665, 175.62660687715,Ni40Fe40Cr20,"# generated using pymatgen
 data_Cr23Fe21Ni10
_symmetry_space_group_name_H-M   'P 1'
_cell_length_a   7.46704761
_cell_length_b   7.46704761
_cell_length_c   10.56000000
_cell_angle_alpha   90.00000000
_cell_angle_beta   90.00000000
_cell_angle_gamma   90.00000000
_symmetry_Int_Tables_number   1
_chemical_formula_structural   Cr23Fe21Ni10
_chemical_formula_sum   'Cr23 Fe21 Ni10'
_cell_volume   588.79180800
_cell_formula_units_Z   1
loop_
 _symmetry_equiv_pos_site_id
 _symmetry_equiv_pos_as_xyz
  1  'x, y, z'
loop_
 _atom_site_type_symbol
 _atom_site_label
 _atom_site_symmetry_multiplicity
 _atom_site_fract_x
 _atom_site_fract_y
 _atom_site_fract_z
 _atom_site_occupancy
  Fe  Fe0  1  0.00180005  0.99519024  0.99868143  1
  Cr  Cr1  1  0.16324006  0.16471649  0.16296929  1
  Cr  Cr2  1  0.99811041  0.99769585  0.33522598  1
  Fe  Fe3  1  0.99988479  0.33557361  0.99925862  1
  Fe  Fe4  1  0.16582806  0.50470493  0.16697849  1
  Cr  Cr5  1  0.99954495  0.33461062  0.33295043  1
  Ni  Ni6  1  0.99985077  0.66710557  0.99998447  1
  Ni  Ni7  1  0.16424213  0.83206818  0.16521472  1
  Fe  Fe8  1  0.00043957  0.66706853  0.33397713  1
  Fe  Fe9  1  0.33166050  0.99766183  0.99885319  1
  Cr  Cr10  1  0.50193579  0.16648985  0.16843705  1
  Cr  Cr11  1  0.33142729  0.99808887  0.33411930  1
  Cr  Cr12  1  0.33640543  0.33480208  0.00177899  1
  Cr  Cr13  1  0.50319312  0.50369114  0.17129642  1
  Cr  Cr14  1  0.33187828  0.33572308  0.33332844  1
  Cr  Cr15  1  0.33107783  0.66753780  0.00128203  1
  Cr  Cr16  1  0.49897992  0.83306261  0.16966847  1
  Ni  Ni17  1  0.32996649  0.66917525  0.33314808  1
  Cr  Cr18  1  0.66591071  0.00149986  0.99974909  1
  Fe  Fe19  1  0.83226130  0.16590672  0.16627431  1
  Ni  Ni20  1  0.66723295  0.99948167  0.33510216  1
  Fe  Fe21  1  0.66863210  0.33744977  0.99896362  1
  Cr  Cr22  1  0.83429695  0.50058777  0.16547053  1
  Ni  Ni23  1  0.66946599  0.33275284  0.33245048  1
  Fe  Fe24  1  0.66707871  0.66666988  0.99658676  1
  Cr  Cr25  1  0.83276406  0.83245281  0.16765630  1
  Fe  Fe26  1  0.66893567  0.66807860  0.33689910  1
  Ni  Ni27  1  0.16334169  0.16401721  0.50673478  1
  Ni  Ni28  1  0.00105812  0.99752356  0.66632612  1
  Cr  Cr29  1  0.16748119  0.16367904  0.83002853  1
  Cr  Cr30  1  0.16594802  0.49756765  0.50005695  1
  Ni  Ni31  1  0.99953719  0.33320009  0.66630211  1
  Cr  Cr32  1  0.16583978  0.49888790  0.83170594  1
  Fe  Fe33  1  0.16841026  0.83273889  0.50029064  1
  Cr  Cr34  1  0.00040017  0.66782627  0.66455653  1
  Fe  Fe35  1  0.16521276  0.83272168  0.83373841  1
  Cr  Cr36  1  0.49651052  0.16478384  0.49907457  1
  Fe  Fe37  1  0.33145349  0.99551919  0.66533188  1
  Fe  Fe38  1  0.49925715  0.16668734  0.83311344  1
  Cr  Cr39  1  0.50226568  0.50310364  0.49867934  1
  Fe  Fe40  1  0.33230298  0.33168258  0.66655042  1
  Fe  Fe41  1  0.50091391  0.50179122  0.83251778  1
  Ni  Ni42  1  0.50082042  0.83097621  0.49881303  1
  Fe  Fe43  1  0.33566559  0.66838541  0.66599945  1
  Fe  Fe44  1  0.49823116  0.83319413  0.83139452  1
  Cr  Cr45  1  0.83487884  0.16849366  0.49885554  1
  Cr  Cr46  1  0.66738394  0.99835241  0.66507681  1
  Cr  Cr47  1  0.83727044  0.16695004  0.83520853  1
  Ni  Ni48  1  0.83347671  0.50290934  0.50056210  1
  Cr  Cr49  1  0.66674396  0.33508120  0.66844917  1
  Fe  Fe50  1  0.83376312  0.50245838  0.83372744  1
  Fe  Fe51  1  0.83233548  0.83202820  0.49945063  1
  Fe  Fe52  1  0.66810479  0.66794472  0.66719315  1
  Fe  Fe53  1  0.83534875  0.83164980  0.83395728  1
" 