339,Ni40Fe20Cr40_6,-223.240513177891, 167.111917188577,Ni40Fe20Cr40,"# generated using pymatgen
 data_Cr23Fe10Ni21
_symmetry_space_group_name_H-M   'P 1'
_cell_length_a   7.46704761
_cell_length_b   7.46704761
_cell_length_c   10.56000000
_cell_angle_alpha   90.00000000
_cell_angle_beta   90.00000000
_cell_angle_gamma   90.00000000
_symmetry_Int_Tables_number   1
_chemical_formula_structural   Cr23Fe10Ni21
_chemical_formula_sum   'Cr23 Fe10 Ni21'
_cell_volume   588.79180800
_cell_formula_units_Z   1
loop_
 _symmetry_equiv_pos_site_id
 _symmetry_equiv_pos_as_xyz
  1  'x, y, z'
loop_
 _atom_site_type_symbol
 _atom_site_label
 _atom_site_symmetry_multiplicity
 _atom_site_fract_x
 _atom_site_fract_y
 _atom_site_fract_z
 _atom_site_occupancy
  Fe  Fe0  1  0.99957016  0.00094521  0.00310851  1
  Fe  Fe1  1  0.16129379  0.16576370  0.16709925  1
  Ni  Ni2  1  0.99652600  0.99930505  0.33168793  1
  Ni  Ni3  1  0.99895158  0.33324077  0.00007108  1
  Cr  Cr4  1  0.16654023  0.50258444  0.16863249  1
  Cr  Cr5  1  0.99419793  0.33346598  0.33510118  1
  Ni  Ni6  1  0.99927525  0.66548074  0.00207214  1
  Ni  Ni7  1  0.16325657  0.83467612  0.16696951  1
  Cr  Cr8  1  0.99826727  0.66923417  0.33474389  1
  Cr  Cr9  1  0.33255366  0.99936646  0.00198326  1
  Fe  Fe10  1  0.50405484  0.16603111  0.16993811  1
  Cr  Cr11  1  0.33178442  0.99735106  0.33411670  1
  Cr  Cr12  1  0.33318281  0.33269716  0.00334038  1
  Ni  Ni13  1  0.50337250  0.49768484  0.16905034  1
  Cr  Cr14  1  0.33500306  0.33484520  0.33249509  1
  Cr  Cr15  1  0.33553015  0.66795443  0.00192240  1
  Cr  Cr16  1  0.50257299  0.83054345  0.17204538  1
  Ni  Ni17  1  0.33485058  0.66678045  0.33540365  1
  Cr  Cr18  1  0.66639746  0.99808801  0.00034140  1
  Ni  Ni19  1  0.83258996  0.16622786  0.16700315  1
  Ni  Ni20  1  0.67012539  0.00058532  0.33537015  1
  Cr  Cr21  1  0.66871874  0.33462612  0.99966649  1
  Ni  Ni22  1  0.83176322  0.49918213  0.16654052  1
  Ni  Ni23  1  0.66677451  0.33375896  0.33281573  1
  Cr  Cr24  1  0.66844144  0.66552016  0.00115144  1
  Ni  Ni25  1  0.83600219  0.83465338  0.16776634  1
  Ni  Ni26  1  0.66728926  0.66551064  0.33317489  1
  Cr  Cr27  1  0.16554658  0.16510997  0.49774338  1
  Cr  Cr28  1  0.99978588  0.00103166  0.66556449  1
  Ni  Ni29  1  0.16407643  0.16877469  0.83639906  1
  Fe  Fe30  1  0.16765935  0.50286836  0.49970204  1
  Cr  Cr31  1  0.99780580  0.33441083  0.66410822  1
  Cr  Cr32  1  0.16627031  0.50058135  0.83138784  1
  Ni  Ni33  1  0.16429162  0.82903346  0.49975485  1
  Fe  Fe34  1  0.99830225  0.66721670  0.66351183  1
  Cr  Cr35  1  0.16679934  0.83312264  0.83377930  1
  Ni  Ni36  1  0.50503765  0.17030955  0.49678382  1
  Cr  Cr37  1  0.33405317  0.99758254  0.66406998  1
  Cr  Cr38  1  0.49924652  0.16585481  0.83223590  1
  Ni  Ni39  1  0.50126582  0.50252010  0.49898557  1
  Cr  Cr40  1  0.33307864  0.33398974  0.66424261  1
  Fe  Fe41  1  0.49964396  0.50348417  0.83123588  1
  Fe  Fe42  1  0.50247858  0.83170968  0.49816885  1
  Ni  Ni43  1  0.33515336  0.66746780  0.66278009  1
  Ni  Ni44  1  0.50090408  0.82969159  0.82916184  1
  Ni  Ni45  1  0.83003905  0.16520278  0.49830329  1
  Cr  Cr46  1  0.66763313  0.99803213  0.66407093  1
  Fe  Fe47  1  0.83680322  0.16663475  0.83486824  1
  Fe  Fe48  1  0.82875887  0.50219196  0.49907497  1
  Cr  Cr49  1  0.66888256  0.33513995  0.66721055  1
  Fe  Fe50  1  0.83497072  0.50090140  0.83412175  1
  Ni  Ni51  1  0.83294947  0.83323338  0.49830599  1
  Ni  Ni52  1  0.66608252  0.66614423  0.66631015  1
  Cr  Cr53  1  0.83359515  0.83165686  0.83450717  1
" 