64,Ni40Fe20Cr40_13,-223.565040326465, 169.208665990428,Ni40Fe20Cr40,"# generated using pymatgen
 data_Cr23Fe10Ni21
_symmetry_space_group_name_H-M   'P 1'
_cell_length_a   7.46704761
_cell_length_b   7.46704761
_cell_length_c   10.56000000
_cell_angle_alpha   90.00000000
_cell_angle_beta   90.00000000
_cell_angle_gamma   90.00000000
_symmetry_Int_Tables_number   1
_chemical_formula_structural   Cr23Fe10Ni21
_chemical_formula_sum   'Cr23 Fe10 Ni21'
_cell_volume   588.79180800
_cell_formula_units_Z   1
loop_
 _symmetry_equiv_pos_site_id
 _symmetry_equiv_pos_as_xyz
  1  'x, y, z'
loop_
 _atom_site_type_symbol
 _atom_site_label
 _atom_site_symmetry_multiplicity
 _atom_site_fract_x
 _atom_site_fract_y
 _atom_site_fract_z
 _atom_site_occupancy
  Ni  Ni0  1  0.99830154  0.00105028  0.99939224  1
  Cr  Cr1  1  0.16667768  0.16444857  0.16632266  1
  Ni  Ni2  1  0.99919632  0.00063609  0.33398109  1
  Ni  Ni3  1  0.99722693  0.33209543  0.00201248  1
  Fe  Fe4  1  0.16688565  0.50033217  0.16677075  1
  Cr  Cr5  1  0.99805286  0.33355669  0.33181315  1
  Cr  Cr6  1  0.00433189  0.66453392  0.00100836  1
  Ni  Ni7  1  0.16623864  0.83544039  0.16674281  1
  Cr  Cr8  1  0.00211967  0.66729336  0.33335091  1
  Cr  Cr9  1  0.33482703  0.99474010  0.99744735  1
  Cr  Cr10  1  0.49932774  0.16422905  0.16708266  1
  Ni  Ni11  1  0.33407423  0.99606269  0.33192808  1
  Cr  Cr12  1  0.33070052  0.33882195  0.99818521  1
  Cr  Cr13  1  0.50372478  0.50154619  0.16757054  1
  Fe  Fe14  1  0.33159574  0.33394274  0.33353920  1
  Cr  Cr15  1  0.33417292  0.66886942  0.99831634  1
  Ni  Ni16  1  0.50102987  0.83212911  0.16732971  1
  Cr  Cr17  1  0.33406473  0.66800575  0.33326341  1
  Ni  Ni18  1  0.66929312  0.99781729  0.00010177  1
  Ni  Ni19  1  0.83602101  0.16409613  0.16554426  1
  Fe  Fe20  1  0.66790625  0.99723849  0.33359721  1
  Cr  Cr21  1  0.67059607  0.33140548  0.99913973  1
  Fe  Fe22  1  0.83474875  0.49934952  0.16551110  1
  Cr  Cr23  1  0.66879150  0.33230638  0.33411933  1
  Ni  Ni24  1  0.66503041  0.66683887  0.00140412  1
  Cr  Cr25  1  0.83326470  0.83164303  0.16630704  1
  Fe  Fe26  1  0.66689239  0.66973497  0.33523357  1
  Cr  Cr27  1  0.16627866  0.16750245  0.50020347  1
  Ni  Ni28  1  0.99853357  0.00311408  0.66633721  1
  Cr  Cr29  1  0.16398938  0.16601134  0.83340973  1
  Fe  Fe30  1  0.16862478  0.50093505  0.50323336  1
  Ni  Ni31  1  0.99764887  0.33487305  0.66637296  1
  Fe  Fe32  1  0.16505154  0.50069674  0.82982569  1
  Cr  Cr33  1  0.16406133  0.83613446  0.50216076  1
  Fe  Fe34  1  0.99891589  0.66902392  0.66672316  1
  Ni  Ni35  1  0.16452492  0.83188639  0.83169713  1
  Cr  Cr36  1  0.49538438  0.16743416  0.49839020  1
  Cr  Cr37  1  0.33505249  0.99202439  0.67079576  1
  Cr  Cr38  1  0.50321790  0.16924651  0.83426946  1
  Ni  Ni39  1  0.49930688  0.49971581  0.50191984  1
  Fe  Fe40  1  0.33396066  0.33491030  0.66757716  1
  Ni  Ni41  1  0.50000012  0.50282686  0.82964263  1
  Ni  Ni42  1  0.50157469  0.82973893  0.49814160  1
  Ni  Ni43  1  0.33321585  0.66289913  0.66795467  1
  Ni  Ni44  1  0.50153849  0.82690311  0.83460006  1
  Fe  Fe45  1  0.83283573  0.16576077  0.50116800  1
  Cr  Cr46  1  0.66790859  0.00160378  0.66573558  1
  Ni  Ni47  1  0.83746172  0.16870027  0.83289305  1
  Cr  Cr48  1  0.83137832  0.50547233  0.50268185  1
  Ni  Ni49  1  0.66840521  0.33602474  0.66665968  1
  Cr  Cr50  1  0.82979318  0.50269139  0.83335109  1
  Ni  Ni51  1  0.83245087  0.83485885  0.50031946  1
  Ni  Ni52  1  0.66027106  0.66693567  0.66391518  1
  Cr  Cr53  1  0.83352195  0.83391147  0.83300620  1
" 