457,Ni40Fe40Cr20_6,-222.466024523361, 184.658358210466,Ni40Fe40Cr20,"# generated using pymatgen
 data_Cr23Fe21Ni10
_symmetry_space_group_name_H-M   'P 1'
_cell_length_a   7.46704761
_cell_length_b   7.46704761
_cell_length_c   10.56000000
_cell_angle_alpha   90.00000000
_cell_angle_beta   90.00000000
_cell_angle_gamma   90.00000000
_symmetry_Int_Tables_number   1
_chemical_formula_structural   Cr23Fe21Ni10
_chemical_formula_sum   'Cr23 Fe21 Ni10'
_cell_volume   588.79180800
_cell_formula_units_Z   1
loop_
 _symmetry_equiv_pos_site_id
 _symmetry_equiv_pos_as_xyz
  1  'x, y, z'
loop_
 _atom_site_type_symbol
 _atom_site_label
 _atom_site_symmetry_multiplicity
 _atom_site_fract_x
 _atom_site_fract_y
 _atom_site_fract_z
 _atom_site_occupancy
  Ni  Ni0  1  0.00099948  0.00053626  0.99950077  1
  Cr  Cr1  1  0.16269475  0.16779355  0.16650966  1
  Cr  Cr2  1  0.99906077  0.99984710  0.33346575  1
  Cr  Cr3  1  0.99573346  0.33461163  0.99897167  1
  Fe  Fe4  1  0.16523748  0.49985818  0.16783707  1
  Ni  Ni5  1  0.99648730  0.33361009  0.33433160  1
  Cr  Cr6  1  0.00401614  0.66887225  0.00013612  1
  Fe  Fe7  1  0.16675895  0.83427659  0.16487070  1
  Fe  Fe8  1  0.99954379  0.66456264  0.33094209  1
  Ni  Ni9  1  0.33089228  0.99983569  0.99940690  1
  Fe  Fe10  1  0.49843774  0.16761336  0.16315491  1
  Cr  Cr11  1  0.33655906  0.00203930  0.33523891  1
  Fe  Fe12  1  0.32959706  0.33539728  0.00173052  1
  Ni  Ni13  1  0.49752173  0.50047455  0.16570945  1
  Fe  Fe14  1  0.32874186  0.33352593  0.33331415  1
  Ni  Ni15  1  0.33346347  0.66727624  0.00063578  1
  Cr  Cr16  1  0.50034522  0.83354261  0.16407934  1
  Cr  Cr17  1  0.33349521  0.66468414  0.33025362  1
  Fe  Fe18  1  0.66871602  0.99913304  0.00226669  1
  Ni  Ni19  1  0.83190822  0.16513423  0.16538274  1
  Fe  Fe20  1  0.66934092  0.99910861  0.33284732  1
  Fe  Fe21  1  0.66296041  0.33147746  0.00517764  1
  Fe  Fe22  1  0.83267585  0.49813592  0.16846052  1
  Cr  Cr23  1  0.66260706  0.33016557  0.33070517  1
  Cr  Cr24  1  0.66863239  0.66306817  0.99998718  1
  Fe  Fe25  1  0.83513455  0.83430924  0.16600502  1
  Fe  Fe26  1  0.66972955  0.66635707  0.32999597  1
  Ni  Ni27  1  0.16396369  0.16947384  0.49946259  1
  Cr  Cr28  1  0.00155883  0.00191017  0.66728219  1
  Ni  Ni29  1  0.16513207  0.16613028  0.83391224  1
  Ni  Ni30  1  0.16509690  0.49779930  0.49630467  1
  Cr  Cr31  1  0.99965657  0.33363585  0.66698261  1
  Fe  Fe32  1  0.16958944  0.49771756  0.83502459  1
  Cr  Cr33  1  0.16981351  0.83302403  0.50004629  1
  Cr  Cr34  1  0.00325519  0.66827027  0.67129254  1
  Fe  Fe35  1  0.16952427  0.83738915  0.83606362  1
  Fe  Fe36  1  0.49862165  0.16655040  0.49874484  1
  Fe  Fe37  1  0.33276606  0.00202318  0.66694185  1
  Cr  Cr38  1  0.49593045  0.16553107  0.83930523  1
  Fe  Fe39  1  0.49791797  0.49722610  0.49682477  1
  Cr  Cr40  1  0.33191845  0.33166280  0.66234428  1
  Cr  Cr41  1  0.50189882  0.49994800  0.83469018  1
  Cr  Cr42  1  0.50577386  0.82910224  0.50180886  1
  Cr  Cr43  1  0.33487018  0.66415748  0.66794201  1
  Cr  Cr44  1  0.50070613  0.83308438  0.83325251  1
  Ni  Ni45  1  0.83372408  0.16731714  0.49746789  1
  Cr  Cr46  1  0.66872433  0.00201636  0.66406267  1
  Cr  Cr47  1  0.83324005  0.16864938  0.83700512  1
  Cr  Cr48  1  0.83277363  0.50137985  0.49981004  1
  Cr  Cr49  1  0.66484225  0.33330150  0.66662948  1
  Fe  Fe50  1  0.83411200  0.50153095  0.83333275  1
  Fe  Fe51  1  0.83712933  0.83326724  0.49890716  1
  Fe  Fe52  1  0.67130537  0.66670050  0.66835138  1
  Fe  Fe53  1  0.83486420  0.83595428  0.83529038  1
" 