206,Ni40Fe40Cr20_12,-222.099294670692, 177.205080955657,Ni40Fe40Cr20,"# generated using pymatgen
 data_Cr23Fe21Ni10
_symmetry_space_group_name_H-M   'P 1'
_cell_length_a   7.46704761
_cell_length_b   7.46704761
_cell_length_c   10.56000000
_cell_angle_alpha   90.00000000
_cell_angle_beta   90.00000000
_cell_angle_gamma   90.00000000
_symmetry_Int_Tables_number   1
_chemical_formula_structural   Cr23Fe21Ni10
_chemical_formula_sum   'Cr23 Fe21 Ni10'
_cell_volume   588.79180800
_cell_formula_units_Z   1
loop_
 _symmetry_equiv_pos_site_id
 _symmetry_equiv_pos_as_xyz
  1  'x, y, z'
loop_
 _atom_site_type_symbol
 _atom_site_label
 _atom_site_symmetry_multiplicity
 _atom_site_fract_x
 _atom_site_fract_y
 _atom_site_fract_z
 _atom_site_occupancy
  Fe  Fe0  1  0.99990192  0.00133269  0.99694914  1
  Cr  Cr1  1  0.16416976  0.16556580  0.16647093  1
  Fe  Fe2  1  0.99774705  0.99934136  0.33390316  1
  Cr  Cr3  1  0.00123667  0.33519359  0.99797963  1
  Ni  Ni4  1  0.16597588  0.49765433  0.16625239  1
  Fe  Fe5  1  0.99534848  0.33212757  0.33345872  1
  Cr  Cr6  1  0.99980174  0.66469496  0.99902459  1
  Fe  Fe7  1  0.16739350  0.83169848  0.16483440  1
  Cr  Cr8  1  0.99964703  0.66203232  0.33276772  1
  Ni  Ni9  1  0.33303598  0.99726054  0.00102161  1
  Cr  Cr10  1  0.50081073  0.16649208  0.16513427  1
  Cr  Cr11  1  0.33466596  0.99834872  0.33499914  1
  Ni  Ni12  1  0.33153358  0.33068437  0.99787598  1
  Cr  Cr13  1  0.49892154  0.49940736  0.16231602  1
  Cr  Cr14  1  0.33258276  0.33470055  0.33636526  1
  Fe  Fe15  1  0.33205547  0.66574251  0.00108897  1
  Fe  Fe16  1  0.49804950  0.83340407  0.16367673  1
  Cr  Cr17  1  0.33293697  0.66741425  0.33221558  1
  Ni  Ni18  1  0.66611261  0.99903593  0.00079034  1
  Fe  Fe19  1  0.83312228  0.16874042  0.16747916  1
  Cr  Cr20  1  0.66445800  0.00237102  0.33745933  1
  Cr  Cr21  1  0.67084675  0.33275841  0.99813201  1
  Fe  Fe22  1  0.83416528  0.49719165  0.16777138  1
  Fe  Fe23  1  0.66713356  0.33580088  0.33612231  1
  Fe  Fe24  1  0.66722650  0.66755349  0.00006191  1
  Cr  Cr25  1  0.83258768  0.83700107  0.16546890  1
  Cr  Cr26  1  0.66637837  0.66678287  0.33286147  1
  Cr  Cr27  1  0.16173659  0.16640632  0.50107028  1
  Fe  Fe28  1  0.99704628  0.99982918  0.66962464  1
  Fe  Fe29  1  0.16809164  0.16360778  0.83356802  1
  Cr  Cr30  1  0.16700459  0.49976208  0.50344667  1
  Cr  Cr31  1  0.99786661  0.33441520  0.67045520  1
  Cr  Cr32  1  0.17198419  0.50052044  0.82916058  1
  Cr  Cr33  1  0.16308042  0.83312136  0.50201520  1
  Fe  Fe34  1  0.99775609  0.66880745  0.66831727  1
  Fe  Fe35  1  0.16767912  0.83479050  0.83280415  1
  Fe  Fe36  1  0.50037107  0.17195399  0.50190863  1
  Cr  Cr37  1  0.33408919  0.00001847  0.66466395  1
  Cr  Cr38  1  0.49954496  0.16781254  0.83312958  1
  Ni  Ni39  1  0.50456989  0.50173555  0.50464832  1
  Ni  Ni40  1  0.33449303  0.33290660  0.66588736  1
  Cr  Cr41  1  0.50253305  0.49992297  0.83130440  1
  Ni  Ni42  1  0.50259992  0.83044788  0.49997782  1
  Fe  Fe43  1  0.33994779  0.66718167  0.66500435  1
  Cr  Cr44  1  0.50292984  0.83176553  0.83734646  1
  Fe  Fe45  1  0.83107615  0.16975980  0.50044167  1
  Cr  Cr46  1  0.66588181  0.99911601  0.66317235  1
  Fe  Fe47  1  0.83197653  0.16394305  0.83263509  1
  Ni  Ni48  1  0.83108887  0.49983931  0.50121791  1
  Ni  Ni49  1  0.66750599  0.33614637  0.66444544  1
  Fe  Fe50  1  0.83207501  0.50338510  0.83049447  1
  Fe  Fe51  1  0.83319739  0.83079760  0.50079630  1
  Ni  Ni52  1  0.67205227  0.66740481  0.66589209  1
  Fe  Fe53  1  0.83397618  0.83427116  0.83409074  1
" 