451,Ni40Fe40Cr20_4,-222.084169923707, 177.367767899538,Ni40Fe40Cr20,"# generated using pymatgen
 data_Cr23Fe21Ni10
_symmetry_space_group_name_H-M   'P 1'
_cell_length_a   7.46704761
_cell_length_b   7.46704761
_cell_length_c   10.56000000
_cell_angle_alpha   90.00000000
_cell_angle_beta   90.00000000
_cell_angle_gamma   90.00000000
_symmetry_Int_Tables_number   1
_chemical_formula_structural   Cr23Fe21Ni10
_chemical_formula_sum   'Cr23 Fe21 Ni10'
_cell_volume   588.79180800
_cell_formula_units_Z   1
loop_
 _symmetry_equiv_pos_site_id
 _symmetry_equiv_pos_as_xyz
  1  'x, y, z'
loop_
 _atom_site_type_symbol
 _atom_site_label
 _atom_site_symmetry_multiplicity
 _atom_site_fract_x
 _atom_site_fract_y
 _atom_site_fract_z
 _atom_site_occupancy
  Ni  Ni0  1  0.99867303  0.99431446  0.00174092  1
  Fe  Fe1  1  0.16656952  0.16394518  0.16601804  1
  Fe  Fe2  1  0.00254198  0.00092790  0.33157019  1
  Cr  Cr3  1  0.00155504  0.33290579  0.99872497  1
  Cr  Cr4  1  0.16522187  0.50405945  0.16559178  1
  Ni  Ni5  1  0.00084748  0.33127390  0.33418869  1
  Fe  Fe6  1  0.99856121  0.66925011  0.99830243  1
  Fe  Fe7  1  0.16662286  0.83716433  0.16755874  1
  Fe  Fe8  1  0.00123780  0.66665521  0.33252905  1
  Ni  Ni9  1  0.33402744  0.99757395  0.00184909  1
  Ni  Ni10  1  0.50004706  0.16119942  0.16429247  1
  Fe  Fe11  1  0.33394174  0.00220366  0.32989741  1
  Cr  Cr12  1  0.33501713  0.33119639  0.00185472  1
  Cr  Cr13  1  0.50169543  0.50074126  0.16692462  1
  Cr  Cr14  1  0.33238158  0.33403807  0.33142401  1
  Cr  Cr15  1  0.33231306  0.66849545  0.99957543  1
  Fe  Fe16  1  0.50014993  0.83441613  0.16787147  1
  Ni  Ni17  1  0.33352073  0.67048774  0.33247667  1
  Fe  Fe18  1  0.66404275  0.99768039  0.00014093  1
  Cr  Cr19  1  0.83241022  0.16465756  0.16526501  1
  Fe  Fe20  1  0.66437883  0.99803791  0.33159740  1
  Ni  Ni21  1  0.66521652  0.33105435  0.00062484  1
  Cr  Cr22  1  0.83369064  0.49904456  0.16629560  1
  Cr  Cr23  1  0.66467728  0.32990596  0.33443097  1
  Fe  Fe24  1  0.66835456  0.66993931  0.00058567  1
  Fe  Fe25  1  0.83277570  0.83241677  0.16774636  1
  Fe  Fe26  1  0.66581763  0.66677826  0.33255695  1
  Fe  Fe27  1  0.16660921  0.16710548  0.50014598  1
  Ni  Ni28  1  0.00032789  0.00071674  0.66568314  1
  Cr  Cr29  1  0.16617314  0.16455284  0.83296365  1
  Cr  Cr30  1  0.16706521  0.50296497  0.50069287  1
  Fe  Fe31  1  0.99957188  0.33288842  0.66724250  1
  Ni  Ni32  1  0.16712948  0.50244281  0.83298881  1
  Cr  Cr33  1  0.17003601  0.83792571  0.49991119  1
  Cr  Cr34  1  0.00023497  0.66976107  0.66992058  1
  Cr  Cr35  1  0.17055166  0.83548802  0.83169678  1
  Fe  Fe36  1  0.49807262  0.16562241  0.49956100  1
  Fe  Fe37  1  0.33542199  0.00172638  0.66740257  1
  Fe  Fe38  1  0.49941162  0.16560397  0.83584346  1
  Fe  Fe39  1  0.49948011  0.50209905  0.49994584  1
  Cr  Cr40  1  0.33396956  0.33533289  0.66650296  1
  Cr  Cr41  1  0.50065167  0.50143918  0.83372794  1
  Cr  Cr42  1  0.49802288  0.83288754  0.49967200  1
  Ni  Ni43  1  0.33567337  0.66767057  0.66739718  1
  Fe  Fe44  1  0.50161483  0.83449369  0.83357669  1
  Cr  Cr45  1  0.83486523  0.16620462  0.50066289  1
  Cr  Cr46  1  0.66851347  0.99910578  0.66906837  1
  Cr  Cr47  1  0.83154389  0.16508946  0.83437797  1
  Cr  Cr48  1  0.83116958  0.49771768  0.50029243  1
  Ni  Ni49  1  0.66295710  0.33147368  0.66525490  1
  Cr  Cr50  1  0.83139691  0.49733061  0.83379402  1
  Cr  Cr51  1  0.83376874  0.83346802  0.49761026  1
  Fe  Fe52  1  0.66516655  0.66568080  0.66692637  1
  Fe  Fe53  1  0.83431140  0.83284414  0.83550322  1
" 