295,Ni40Fe40Cr20_1,-221.978263312595, 179.809805023573,Ni40Fe40Cr20,"# generated using pymatgen
 data_Cr23Fe21Ni10
_symmetry_space_group_name_H-M   'P 1'
_cell_length_a   7.46704761
_cell_length_b   7.46704761
_cell_length_c   10.56000000
_cell_angle_alpha   90.00000000
_cell_angle_beta   90.00000000
_cell_angle_gamma   90.00000000
_symmetry_Int_Tables_number   1
_chemical_formula_structural   Cr23Fe21Ni10
_chemical_formula_sum   'Cr23 Fe21 Ni10'
_cell_volume   588.79180800
_cell_formula_units_Z   1
loop_
 _symmetry_equiv_pos_site_id
 _symmetry_equiv_pos_as_xyz
  1  'x, y, z'
loop_
 _atom_site_type_symbol
 _atom_site_label
 _atom_site_symmetry_multiplicity
 _atom_site_fract_x
 _atom_site_fract_y
 _atom_site_fract_z
 _atom_site_occupancy
  Cr  Cr0  1  0.00485064  0.00068803  0.99709862  1
  Ni  Ni1  1  0.16842434  0.16887970  0.16702185  1
  Cr  Cr2  1  0.00295394  0.99910949  0.33115809  1
  Cr  Cr3  1  0.99965593  0.33131869  0.99894934  1
  Cr  Cr4  1  0.16502921  0.49911734  0.16789549  1
  Fe  Fe5  1  0.00281695  0.33574915  0.33442500  1
  Fe  Fe6  1  0.99593280  0.66616363  0.99817217  1
  Cr  Cr7  1  0.16710533  0.83087216  0.16314736  1
  Ni  Ni8  1  0.99753691  0.66547894  0.33428871  1
  Fe  Fe9  1  0.33337216  0.00055315  0.99758203  1
  Cr  Cr10  1  0.49890898  0.16681404  0.16418190  1
  Cr  Cr11  1  0.33279085  0.99978936  0.33506096  1
  Fe  Fe12  1  0.33279688  0.33420083  0.99947790  1
  Fe  Fe13  1  0.49671764  0.49800789  0.16280227  1
  Ni  Ni14  1  0.33226376  0.32985907  0.33545877  1
  Fe  Fe15  1  0.33185302  0.66479162  0.99696781  1
  Cr  Cr16  1  0.50095561  0.83119855  0.16490325  1
  Cr  Cr17  1  0.33262927  0.66437540  0.33459752  1
  Cr  Cr18  1  0.67166154  0.99864133  0.99955145  1
  Cr  Cr19  1  0.83562115  0.16851696  0.16824159  1
  Fe  Fe20  1  0.66572847  0.00111557  0.33296724  1
  Fe  Fe21  1  0.66710771  0.33613063  0.99840863  1
  Fe  Fe22  1  0.83310127  0.50339349  0.16454851  1
  Cr  Cr23  1  0.66440298  0.33680179  0.33000658  1
  Ni  Ni24  1  0.66377735  0.66243383  0.99953871  1
  Fe  Fe25  1  0.83551599  0.83033378  0.16530759  1
  Cr  Cr26  1  0.66631564  0.66698008  0.33133230  1
  Fe  Fe27  1  0.16934771  0.16446871  0.50123866  1
  Cr  Cr28  1  0.00254416  0.00075896  0.67151167  1
  Ni  Ni29  1  0.16768295  0.16821348  0.83368819  1
  Fe  Fe30  1  0.16349502  0.49762194  0.49829424  1
  Cr  Cr31  1  0.99935191  0.33386769  0.66591649  1
  Fe  Fe32  1  0.16710845  0.49846337  0.83395235  1
  Ni  Ni33  1  0.16508388  0.82908487  0.50188815  1
  Fe  Fe34  1  0.00038996  0.66596310  0.66734359  1
  Fe  Fe35  1  0.16787682  0.83178624  0.83300750  1
  Ni  Ni36  1  0.49864234  0.16866888  0.50313426  1
  Ni  Ni37  1  0.33132992  0.99961869  0.66665776  1
  Cr  Cr38  1  0.49967946  0.16860089  0.83326700  1
  Cr  Cr39  1  0.49848380  0.49836903  0.50136235  1
  Fe  Fe40  1  0.33113050  0.33046691  0.66733805  1
  Ni  Ni41  1  0.49863552  0.50138389  0.83666593  1
  Cr  Cr42  1  0.50162153  0.83795818  0.50325489  1
  Cr  Cr43  1  0.33325631  0.66393731  0.66588176  1
  Cr  Cr44  1  0.50040217  0.83305966  0.83099227  1
  Cr  Cr45  1  0.83077690  0.16900979  0.49801124  1
  Fe  Fe46  1  0.66741301  0.00372951  0.66857394  1
  Ni  Ni47  1  0.83487341  0.16789684  0.83385086  1
  Fe  Fe48  1  0.83402055  0.50286401  0.49985783  1
  Cr  Cr49  1  0.66625089  0.33834025  0.67120643  1
  Fe  Fe50  1  0.83264846  0.50165378  0.83541085  1
  Cr  Cr51  1  0.83467767  0.83430660  0.50134314  1
  Fe  Fe52  1  0.66969302  0.66778918  0.66986331  1
  Fe  Fe53  1  0.83375729  0.83080371  0.83339563  1
" 