108,Ni40Fe40Cr20_2,-222.197006292365, 180.932443306912,Ni40Fe40Cr20,"# generated using pymatgen
 data_Cr23Fe21Ni10
_symmetry_space_group_name_H-M   'P 1'
_cell_length_a   7.46704761
_cell_length_b   7.46704761
_cell_length_c   10.56000000
_cell_angle_alpha   90.00000000
_cell_angle_beta   90.00000000
_cell_angle_gamma   90.00000000
_symmetry_Int_Tables_number   1
_chemical_formula_structural   Cr23Fe21Ni10
_chemical_formula_sum   'Cr23 Fe21 Ni10'
_cell_volume   588.79180800
_cell_formula_units_Z   1
loop_
 _symmetry_equiv_pos_site_id
 _symmetry_equiv_pos_as_xyz
  1  'x, y, z'
loop_
 _atom_site_type_symbol
 _atom_site_label
 _atom_site_symmetry_multiplicity
 _atom_site_fract_x
 _atom_site_fract_y
 _atom_site_fract_z
 _atom_site_occupancy
  Fe  Fe0  1  0.99839244  0.00293127  0.99623414  1
  Cr  Cr1  1  0.16452406  0.16606340  0.16662762  1
  Cr  Cr2  1  0.00064869  0.99756187  0.33580318  1
  Fe  Fe3  1  0.00008654  0.33256460  0.99547020  1
  Cr  Cr4  1  0.16515442  0.50097356  0.16420537  1
  Fe  Fe5  1  0.99894619  0.33330881  0.33597021  1
  Cr  Cr6  1  0.99649497  0.66704808  0.99769257  1
  Cr  Cr7  1  0.16570632  0.83228252  0.16451801  1
  Cr  Cr8  1  0.99685325  0.66598169  0.33640049  1
  Cr  Cr9  1  0.33614492  0.00550997  0.99876233  1
  Cr  Cr10  1  0.50303656  0.16642666  0.17038954  1
  Fe  Fe11  1  0.33415453  0.99620144  0.33602412  1
  Ni  Ni12  1  0.32977367  0.33484189  0.99873066  1
  Fe  Fe13  1  0.49855388  0.49979542  0.16802132  1
  Cr  Cr14  1  0.33390389  0.33159430  0.33386668  1
  Fe  Fe15  1  0.33468196  0.66422472  0.99941196  1
  Cr  Cr16  1  0.49808614  0.83163178  0.16842320  1
  Fe  Fe17  1  0.33311668  0.66767664  0.33564037  1
  Fe  Fe18  1  0.66887433  0.00007117  0.99852250  1
  Cr  Cr19  1  0.83444023  0.16794482  0.16474830  1
  Ni  Ni20  1  0.66800725  0.99701597  0.33251969  1
  Cr  Cr21  1  0.66115591  0.33413493  0.00057171  1
  Fe  Fe22  1  0.83103245  0.50077077  0.16808692  1
  Fe  Fe23  1  0.67140006  0.33519155  0.33417912  1
  Cr  Cr24  1  0.66665894  0.66910051  0.00040684  1
  Fe  Fe25  1  0.83223070  0.83494966  0.16623118  1
  Fe  Fe26  1  0.66578913  0.66708943  0.33328184  1
  Fe  Fe27  1  0.17023923  0.16415176  0.50173143  1
  Cr  Cr28  1  0.99975584  0.99713894  0.66838158  1
  Ni  Ni29  1  0.16664448  0.16818443  0.83289638  1
  Fe  Fe30  1  0.16891902  0.49900694  0.50103534  1
  Cr  Cr31  1  0.00473583  0.33264501  0.66659899  1
  Ni  Ni32  1  0.16964798  0.49936012  0.83277483  1
  Ni  Ni33  1  0.16884952  0.83109317  0.49934407  1
  Cr  Cr34  1  0.99970389  0.66763262  0.66497048  1
  Cr  Cr35  1  0.16946757  0.83087640  0.83564951  1
  Cr  Cr36  1  0.50372196  0.16468613  0.50053780  1
  Fe  Fe37  1  0.33326175  0.00021667  0.66602580  1
  Cr  Cr38  1  0.50235735  0.16873735  0.82973400  1
  Cr  Cr39  1  0.50271894  0.50136702  0.50148326  1
  Ni  Ni40  1  0.33465874  0.33368299  0.66749390  1
  Cr  Cr41  1  0.49661907  0.50318299  0.83103182  1
  Fe  Fe42  1  0.50046685  0.83452833  0.49985405  1
  Fe  Fe43  1  0.33368176  0.66814941  0.66482269  1
  Fe  Fe44  1  0.50158250  0.83513261  0.83219375  1
  Cr  Cr45  1  0.83270149  0.16689863  0.50195081  1
  Ni  Ni46  1  0.66464549  0.99696070  0.66970772  1
  Ni  Ni47  1  0.83268969  0.16415477  0.83335720  1
  Fe  Fe48  1  0.83298011  0.50047441  0.50163947  1
  Ni  Ni49  1  0.66539906  0.33239194  0.66553909  1
  Cr  Cr50  1  0.83196931  0.49735489  0.82847892  1
  Fe  Fe51  1  0.82787821  0.83311306  0.50167643  1
  Fe  Fe52  1  0.66560308  0.66951183  0.66677241  1
  Ni  Ni53  1  0.83125315  0.83647944  0.83357824  1
" 