316,Ni40Fe20Cr40_11,-223.847820812663, 173.079425923104,Ni40Fe20Cr40,"# generated using pymatgen
 data_Cr23Fe10Ni21
_symmetry_space_group_name_H-M   'P 1'
_cell_length_a   7.46704761
_cell_length_b   7.46704761
_cell_length_c   10.56000000
_cell_angle_alpha   90.00000000
_cell_angle_beta   90.00000000
_cell_angle_gamma   90.00000000
_symmetry_Int_Tables_number   1
_chemical_formula_structural   Cr23Fe10Ni21
_chemical_formula_sum   'Cr23 Fe10 Ni21'
_cell_volume   588.79180800
_cell_formula_units_Z   1
loop_
 _symmetry_equiv_pos_site_id
 _symmetry_equiv_pos_as_xyz
  1  'x, y, z'
loop_
 _atom_site_type_symbol
 _atom_site_label
 _atom_site_symmetry_multiplicity
 _atom_site_fract_x
 _atom_site_fract_y
 _atom_site_fract_z
 _atom_site_occupancy
  Ni  Ni0  1  0.00474701  0.99771056  0.99917412  1
  Ni  Ni1  1  0.17024324  0.16491241  0.16613229  1
  Ni  Ni2  1  0.00079234  0.99836478  0.33239294  1
  Cr  Cr3  1  0.00311081  0.33047306  0.99870426  1
  Ni  Ni4  1  0.16876728  0.50016096  0.16439714  1
  Ni  Ni5  1  0.00020501  0.33003475  0.33134024  1
  Ni  Ni6  1  0.00203689  0.66879829  0.00093430  1
  Ni  Ni7  1  0.16553807  0.83539697  0.16574264  1
  Fe  Fe8  1  0.00367811  0.66526617  0.33130515  1
  Ni  Ni9  1  0.33105031  0.99795014  0.00113603  1
  Ni  Ni10  1  0.49513592  0.16600200  0.16667684  1
  Fe  Fe11  1  0.33054386  0.00158287  0.33083220  1
  Ni  Ni12  1  0.33484124  0.33079402  0.00232122  1
  Ni  Ni13  1  0.49876202  0.50047809  0.16303840  1
  Cr  Cr14  1  0.33294093  0.33811488  0.33043826  1
  Fe  Fe15  1  0.33153692  0.66845284  0.00207719  1
  Fe  Fe16  1  0.49731440  0.83404751  0.16547308  1
  Cr  Cr17  1  0.33367125  0.67111076  0.33044331  1
  Cr  Cr18  1  0.66272856  0.00014843  0.99951828  1
  Cr  Cr19  1  0.83589398  0.16258014  0.16624921  1
  Fe  Fe20  1  0.66505663  0.00045506  0.33155997  1
  Cr  Cr21  1  0.66511860  0.33278378  0.99871918  1
  Cr  Cr22  1  0.83505544  0.50271004  0.16428876  1
  Cr  Cr23  1  0.66705026  0.33322477  0.33029711  1
  Ni  Ni24  1  0.66275708  0.66688562  0.00012295  1
  Cr  Cr25  1  0.83426717  0.83213076  0.16597974  1
  Fe  Fe26  1  0.66571885  0.66678229  0.33012515  1
  Cr  Cr27  1  0.16884038  0.16528501  0.49986650  1
  Cr  Cr28  1  0.00112493  0.99810467  0.66928652  1
  Ni  Ni29  1  0.17410924  0.16292362  0.83505527  1
  Cr  Cr30  1  0.16565032  0.49949600  0.50161124  1
  Cr  Cr31  1  0.00007227  0.33237974  0.67010361  1
  Cr  Cr32  1  0.16603616  0.50044665  0.83521556  1
  Ni  Ni33  1  0.16423190  0.83536701  0.49886744  1
  Ni  Ni34  1  0.99876046  0.66832379  0.66649599  1
  Ni  Ni35  1  0.16564015  0.83627657  0.83510771  1
  Cr  Cr36  1  0.49875750  0.16716069  0.50108623  1
  Ni  Ni37  1  0.33473555  0.99862080  0.66769980  1
  Ni  Ni38  1  0.49594324  0.16328261  0.83197732  1
  Cr  Cr39  1  0.50120386  0.50085344  0.50453216  1
  Ni  Ni40  1  0.33461199  0.33079794  0.66886549  1
  Cr  Cr41  1  0.49868041  0.49871978  0.83342679  1
  Cr  Cr42  1  0.50103125  0.83731957  0.50080465  1
  Cr  Cr43  1  0.32853319  0.67156118  0.66751843  1
  Fe  Fe44  1  0.49675493  0.83466049  0.83378420  1
  Fe  Fe45  1  0.83455249  0.16453253  0.49793530  1
  Ni  Ni46  1  0.66579909  0.00014642  0.66804878  1
  Fe  Fe47  1  0.83520966  0.16510283  0.83537034  1
  Cr  Cr48  1  0.83426777  0.50197472  0.49931900  1
  Cr  Cr49  1  0.66970040  0.33017750  0.67041632  1
  Ni  Ni50  1  0.83272228  0.50532372  0.83488471  1
  Cr  Cr51  1  0.83376436  0.83295109  0.49718732  1
  Fe  Fe52  1  0.66736292  0.66948497  0.66978973  1
  Cr  Cr53  1  0.83334112  0.83137469  0.83632366  1
" 