396,Ni40Fe20Cr40_12,-223.702107413163, 174.884048272905,Ni40Fe20Cr40,"# generated using pymatgen
 data_Cr23Fe10Ni21
_symmetry_space_group_name_H-M   'P 1'
_cell_length_a   7.46704761
_cell_length_b   7.46704761
_cell_length_c   10.56000000
_cell_angle_alpha   90.00000000
_cell_angle_beta   90.00000000
_cell_angle_gamma   90.00000000
_symmetry_Int_Tables_number   1
_chemical_formula_structural   Cr23Fe10Ni21
_chemical_formula_sum   'Cr23 Fe10 Ni21'
_cell_volume   588.79180800
_cell_formula_units_Z   1
loop_
 _symmetry_equiv_pos_site_id
 _symmetry_equiv_pos_as_xyz
  1  'x, y, z'
loop_
 _atom_site_type_symbol
 _atom_site_label
 _atom_site_symmetry_multiplicity
 _atom_site_fract_x
 _atom_site_fract_y
 _atom_site_fract_z
 _atom_site_occupancy
  Ni  Ni0  1  0.00270381  0.00140192  0.99964882  1
  Fe  Fe1  1  0.16730347  0.16606138  0.16482992  1
  Cr  Cr2  1  0.99949577  0.99980886  0.33142527  1
  Ni  Ni3  1  0.00002898  0.33202162  0.00236508  1
  Fe  Fe4  1  0.16504943  0.49807769  0.16635896  1
  Ni  Ni5  1  0.00197575  0.33256029  0.32996397  1
  Ni  Ni6  1  0.99864369  0.66571323  0.00109744  1
  Ni  Ni7  1  0.16556753  0.83143696  0.16498885  1
  Ni  Ni8  1  0.99883127  0.66567036  0.33241806  1
  Ni  Ni9  1  0.33113236  0.00097288  0.00107140  1
  Cr  Cr10  1  0.50160371  0.16799112  0.16734334  1
  Fe  Fe11  1  0.33057633  0.99967970  0.32923317  1
  Ni  Ni12  1  0.33204085  0.32990197  0.00021661  1
  Ni  Ni13  1  0.49788739  0.49734557  0.16699515  1
  Ni  Ni14  1  0.33284665  0.33358823  0.33270101  1
  Cr  Cr15  1  0.33400235  0.66673645  0.00258032  1
  Ni  Ni16  1  0.49584459  0.83404504  0.16606771  1
  Cr  Cr17  1  0.33261938  0.66579645  0.33139944  1
  Cr  Cr18  1  0.66717491  0.99974169  0.99874700  1
  Ni  Ni19  1  0.83588130  0.17055799  0.16598980  1
  Fe  Fe20  1  0.66811403  0.00067273  0.32975590  1
  Ni  Ni21  1  0.66802003  0.33453088  0.00277304  1
  Fe  Fe22  1  0.83516102  0.49895847  0.16567205  1
  Fe  Fe23  1  0.66966197  0.33674582  0.32948438  1
  Cr  Cr24  1  0.66728429  0.66570145  0.00066366  1
  Cr  Cr25  1  0.83660097  0.83513939  0.16470690  1
  Cr  Cr26  1  0.66717043  0.66844069  0.33047642  1
  Cr  Cr27  1  0.16517003  0.16644320  0.49946309  1
  Fe  Fe28  1  0.99607322  0.00000180  0.66904909  1
  Ni  Ni29  1  0.16596491  0.16523995  0.83712023  1
  Cr  Cr30  1  0.16715245  0.49880507  0.50082729  1
  Ni  Ni31  1  0.99749888  0.32990434  0.66880383  1
  Cr  Cr32  1  0.16308694  0.49702120  0.83484155  1
  Cr  Cr33  1  0.16150150  0.83067230  0.50081026  1
  Fe  Fe34  1  0.99787292  0.66404272  0.66870358  1
  Cr  Cr35  1  0.16468302  0.83206522  0.83519197  1
  Cr  Cr36  1  0.50095495  0.17005734  0.49397699  1
  Cr  Cr37  1  0.33163594  0.00155333  0.66951577  1
  Ni  Ni38  1  0.49747527  0.16661862  0.83713681  1
  Ni  Ni39  1  0.50285824  0.50078142  0.49741806  1
  Cr  Cr40  1  0.33120166  0.33133831  0.66746630  1
  Cr  Cr41  1  0.50219034  0.49715557  0.83565750  1
  Cr  Cr42  1  0.50205281  0.83688796  0.49814735  1
  Cr  Cr43  1  0.34133899  0.66540550  0.66595772  1
  Fe  Fe44  1  0.50260710  0.83557070  0.83406643  1
  Cr  Cr45  1  0.83131161  0.16456454  0.49808592  1
  Fe  Fe46  1  0.66616707  0.00074483  0.66900586  1
  Cr  Cr47  1  0.83216134  0.16902117  0.83570445  1
  Cr  Cr48  1  0.83579153  0.50087080  0.49926179  1
  Cr  Cr49  1  0.66631926  0.33728052  0.66690911  1
  Ni  Ni50  1  0.83396506  0.50219868  0.83604974  1
  Ni  Ni51  1  0.83261272  0.83320244  0.50247518  1
  Ni  Ni52  1  0.67217232  0.67105687  0.66768989  1
  Ni  Ni53  1  0.83495770  0.83219674  0.83169050  1
" 