344,Ni40Fe20Cr40_1,-223.68476314495, 173.35081511829,Ni40Fe20Cr40,"# generated using pymatgen
 data_Cr23Fe10Ni21
_symmetry_space_group_name_H-M   'P 1'
_cell_length_a   7.46704761
_cell_length_b   7.46704761
_cell_length_c   10.56000000
_cell_angle_alpha   90.00000000
_cell_angle_beta   90.00000000
_cell_angle_gamma   90.00000000
_symmetry_Int_Tables_number   1
_chemical_formula_structural   Cr23Fe10Ni21
_chemical_formula_sum   'Cr23 Fe10 Ni21'
_cell_volume   588.79180800
_cell_formula_units_Z   1
loop_
 _symmetry_equiv_pos_site_id
 _symmetry_equiv_pos_as_xyz
  1  'x, y, z'
loop_
 _atom_site_type_symbol
 _atom_site_label
 _atom_site_symmetry_multiplicity
 _atom_site_fract_x
 _atom_site_fract_y
 _atom_site_fract_z
 _atom_site_occupancy
  Ni  Ni0  1  0.00165987  0.00189382  0.00269722  1
  Ni  Ni1  1  0.16609305  0.16625938  0.16932282  1
  Fe  Fe2  1  0.00131819  0.00155524  0.33060467  1
  Fe  Fe3  1  0.00052668  0.33016073  0.00188807  1
  Fe  Fe4  1  0.16676897  0.49923892  0.16998810  1
  Ni  Ni5  1  0.00223421  0.33455479  0.33031138  1
  Fe  Fe6  1  0.00292154  0.66987194  0.00266583  1
  Ni  Ni7  1  0.16761569  0.83630353  0.16894861  1
  Ni  Ni8  1  0.00227096  0.66656934  0.33179031  1
  Ni  Ni9  1  0.33008210  0.00114706  0.00230863  1
  Ni  Ni10  1  0.49728932  0.16465779  0.16805255  1
  Ni  Ni11  1  0.33363962  0.99875920  0.33064796  1
  Cr  Cr12  1  0.33301341  0.33013831  0.00235686  1
  Cr  Cr13  1  0.49940606  0.50051691  0.17038927  1
  Ni  Ni14  1  0.33229704  0.32958008  0.33284642  1
  Cr  Cr15  1  0.32962426  0.66914103  0.00312339  1
  Ni  Ni16  1  0.49658022  0.83496168  0.16993255  1
  Fe  Fe17  1  0.33324620  0.66743442  0.33316813  1
  Cr  Cr18  1  0.66400189  0.00436753  0.00201988  1
  Ni  Ni19  1  0.83540697  0.16726549  0.16641241  1
  Ni  Ni20  1  0.66253441  0.99884874  0.33150180  1
  Fe  Fe21  1  0.66643298  0.32961163  0.00161690  1
  Cr  Cr22  1  0.83469908  0.49892970  0.16688693  1
  Cr  Cr23  1  0.66701244  0.33004071  0.33278537  1
  Cr  Cr24  1  0.66576188  0.66709616  0.00288471  1
  Cr  Cr25  1  0.83276252  0.83493964  0.16993574  1
  Ni  Ni26  1  0.66699680  0.66726079  0.33510177  1
  Cr  Cr27  1  0.16829344  0.16505414  0.49761466  1
  Cr  Cr28  1  0.99929504  0.99913046  0.66601742  1
  Cr  Cr29  1  0.16715144  0.16577349  0.83158132  1
  Cr  Cr30  1  0.16705854  0.49565623  0.49820365  1
  Ni  Ni31  1  0.00085869  0.33469538  0.66821139  1
  Fe  Fe32  1  0.16613072  0.49836436  0.83384339  1
  Ni  Ni33  1  0.16917967  0.83134372  0.49544574  1
  Cr  Cr34  1  0.00157193  0.66676473  0.66750027  1
  Ni  Ni35  1  0.16540543  0.83317334  0.83679459  1
  Fe  Fe36  1  0.49918744  0.16224301  0.49796219  1
  Cr  Cr37  1  0.33490296  0.99790150  0.66615657  1
  Ni  Ni38  1  0.50084213  0.16789128  0.83184935  1
  Fe  Fe39  1  0.49874266  0.49933537  0.49663411  1
  Ni  Ni40  1  0.33404288  0.33164664  0.66507439  1
  Cr  Cr41  1  0.49853162  0.49783022  0.83293443  1
  Ni  Ni42  1  0.49988671  0.83219290  0.49579745  1
  Cr  Cr43  1  0.33139182  0.66573463  0.66572858  1
  Cr  Cr44  1  0.49795900  0.83584046  0.83466662  1
  Cr  Cr45  1  0.83707626  0.16823406  0.49824454  1
  Ni  Ni46  1  0.66548767  0.00339041  0.66610219  1
  Ni  Ni47  1  0.83341541  0.16973842  0.83470622  1
  Fe  Fe48  1  0.83613865  0.50173354  0.49628871  1
  Cr  Cr49  1  0.66721849  0.33253151  0.66408704  1
  Cr  Cr50  1  0.83402066  0.49972880  0.83608370  1
  Cr  Cr51  1  0.83305767  0.83553689  0.49510319  1
  Cr  Cr52  1  0.66700823  0.66984659  0.66210375  1
  Cr  Cr53  1  0.83394847  0.83758338  0.83507624  1
" 