4,Ni40Fe20Cr40_0,-223.617034065323, 172.397548542349,Ni40Fe20Cr40,"# generated using pymatgen
 data_Cr23Fe10Ni21
_symmetry_space_group_name_H-M   'P 1'
_cell_length_a   7.46704761
_cell_length_b   7.46704761
_cell_length_c   10.56000000
_cell_angle_alpha   90.00000000
_cell_angle_beta   90.00000000
_cell_angle_gamma   90.00000000
_symmetry_Int_Tables_number   1
_chemical_formula_structural   Cr23Fe10Ni21
_chemical_formula_sum   'Cr23 Fe10 Ni21'
_cell_volume   588.79180800
_cell_formula_units_Z   1
loop_
 _symmetry_equiv_pos_site_id
 _symmetry_equiv_pos_as_xyz
  1  'x, y, z'
loop_
 _atom_site_type_symbol
 _atom_site_label
 _atom_site_symmetry_multiplicity
 _atom_site_fract_x
 _atom_site_fract_y
 _atom_site_fract_z
 _atom_site_occupancy
  Cr  Cr0  1  0.99700935  0.99578609  0.99728222  1
  Cr  Cr1  1  0.16464857  0.16985575  0.16474823  1
  Fe  Fe2  1  0.99860423  0.99876908  0.33436762  1
  Ni  Ni3  1  0.00134506  0.33405184  0.00095490  1
  Ni  Ni4  1  0.16486971  0.50200558  0.16707672  1
  Fe  Fe5  1  0.99990785  0.33436968  0.33521638  1
  Ni  Ni6  1  0.99939812  0.66753184  0.00063554  1
  Ni  Ni7  1  0.16432145  0.83326064  0.16568309  1
  Ni  Ni8  1  0.99962234  0.66945316  0.33235117  1
  Fe  Fe9  1  0.33164007  0.00062557  0.00140819  1
  Ni  Ni10  1  0.50022310  0.16362962  0.16407936  1
  Cr  Cr11  1  0.33266329  0.00238374  0.32886438  1
  Ni  Ni12  1  0.33442146  0.33445410  0.00111192  1
  Cr  Cr13  1  0.50220516  0.49919739  0.16247753  1
  Cr  Cr14  1  0.33293368  0.33332811  0.33429306  1
  Cr  Cr15  1  0.32998419  0.66825156  0.00162755  1
  Ni  Ni16  1  0.50191393  0.83723480  0.16359861  1
  Cr  Cr17  1  0.33213827  0.66899662  0.32877530  1
  Ni  Ni18  1  0.66758530  0.99955598  0.00145909  1
  Cr  Cr19  1  0.83218595  0.16572248  0.16594882  1
  Fe  Fe20  1  0.66791261  0.99881981  0.33214870  1
  Fe  Fe21  1  0.66820975  0.33085084  0.99913194  1
  Cr  Cr22  1  0.83840054  0.49954910  0.16499697  1
  Cr  Cr23  1  0.66679953  0.33035860  0.33616564  1
  Fe  Fe24  1  0.67010260  0.66971728  0.99982650  1
  Ni  Ni25  1  0.83304652  0.83278302  0.16751637  1
  Cr  Cr26  1  0.67046184  0.66707743  0.33194520  1
  Ni  Ni27  1  0.16187254  0.16715730  0.50128346  1
  Ni  Ni28  1  0.99537109  0.99957540  0.66746569  1
  Cr  Cr29  1  0.16272756  0.16712156  0.83384419  1
  Cr  Cr30  1  0.16462524  0.50079987  0.50129358  1
  Ni  Ni31  1  0.99882639  0.32890382  0.66395466  1
  Cr  Cr32  1  0.16645392  0.49863680  0.83082875  1
  Cr  Cr33  1  0.16798992  0.83459400  0.50301785  1
  Fe  Fe34  1  0.99973309  0.66672421  0.66730299  1
  Ni  Ni35  1  0.16357721  0.83069918  0.83157717  1
  Fe  Fe36  1  0.49855457  0.16661913  0.50142436  1
  Cr  Cr37  1  0.33033587  0.00159294  0.66890599  1
  Cr  Cr38  1  0.50100727  0.16660855  0.83523498  1
  Cr  Cr39  1  0.49994868  0.50355905  0.50438856  1
  Ni  Ni40  1  0.33147058  0.33400928  0.66539513  1
  Fe  Fe41  1  0.49943558  0.49955238  0.83445174  1
  Cr  Cr42  1  0.50271652  0.83628971  0.50035101  1
  Ni  Ni43  1  0.33331361  0.66553382  0.66960964  1
  Cr  Cr44  1  0.50037989  0.83450360  0.83463581  1
  Ni  Ni45  1  0.83443281  0.16395990  0.49982795  1
  Ni  Ni46  1  0.67156621  0.00050192  0.66421140  1
  Ni  Ni47  1  0.83224376  0.16457144  0.83325174  1
  Ni  Ni48  1  0.83645077  0.49767056  0.49976596  1
  Cr  Cr49  1  0.66810258  0.33125214  0.66697756  1
  Cr  Cr50  1  0.83610712  0.49716177  0.83678240  1
  Fe  Fe51  1  0.83705266  0.83299235  0.49993362  1
  Cr  Cr52  1  0.66987847  0.66746330  0.66875190  1
  Ni  Ni53  1  0.83327161  0.83432626  0.83184091  1
" 