319,Ni40Fe20Cr40_3,-223.986642146189, 171.009705266322,Ni40Fe20Cr40,"# generated using pymatgen
 data_Cr23Fe10Ni21
_symmetry_space_group_name_H-M   'P 1'
_cell_length_a   7.46704761
_cell_length_b   7.46704761
_cell_length_c   10.56000000
_cell_angle_alpha   90.00000000
_cell_angle_beta   90.00000000
_cell_angle_gamma   90.00000000
_symmetry_Int_Tables_number   1
_chemical_formula_structural   Cr23Fe10Ni21
_chemical_formula_sum   'Cr23 Fe10 Ni21'
_cell_volume   588.79180800
_cell_formula_units_Z   1
loop_
 _symmetry_equiv_pos_site_id
 _symmetry_equiv_pos_as_xyz
  1  'x, y, z'
loop_
 _atom_site_type_symbol
 _atom_site_label
 _atom_site_symmetry_multiplicity
 _atom_site_fract_x
 _atom_site_fract_y
 _atom_site_fract_z
 _atom_site_occupancy
  Ni  Ni0  1  0.00156431  0.00132283  0.99966868  1
  Cr  Cr1  1  0.16620041  0.16801981  0.16589489  1
  Cr  Cr2  1  0.99662723  0.00116893  0.33264111  1
  Ni  Ni3  1  0.99853750  0.33151295  0.99973843  1
  Ni  Ni4  1  0.16860374  0.49985477  0.16817406  1
  Fe  Fe5  1  0.99984194  0.33111402  0.33287008  1
  Cr  Cr6  1  0.00296277  0.66713364  0.00114139  1
  Ni  Ni7  1  0.17118631  0.83324468  0.16482867  1
  Cr  Cr8  1  0.00268538  0.66749316  0.33132070  1
  Ni  Ni9  1  0.33112000  0.99848484  0.00230317  1
  Ni  Ni10  1  0.50096800  0.16350415  0.16831814  1
  Fe  Fe11  1  0.33464385  0.99865852  0.33097433  1
  Cr  Cr12  1  0.33419422  0.33460405  0.99813771  1
  Cr  Cr13  1  0.50049336  0.50006742  0.16267889  1
  Fe  Fe14  1  0.33438194  0.33275204  0.33293588  1
  Ni  Ni15  1  0.33176584  0.66769498  0.00019966  1
  Ni  Ni16  1  0.49599142  0.83568941  0.16563200  1
  Ni  Ni17  1  0.33358288  0.66449872  0.32980804  1
  Cr  Cr18  1  0.66810084  0.00337549  0.00358077  1
  Ni  Ni19  1  0.83225001  0.16740748  0.16470205  1
  Ni  Ni20  1  0.66453407  0.00392855  0.33428021  1
  Ni  Ni21  1  0.66954098  0.33259551  0.99828052  1
  Cr  Cr22  1  0.83741634  0.49482796  0.16422478  1
  Cr  Cr23  1  0.66524576  0.33057495  0.33282815  1
  Fe  Fe24  1  0.66616465  0.66505074  0.99849132  1
  Cr  Cr25  1  0.83083659  0.83477967  0.16673758  1
  Cr  Cr26  1  0.66416500  0.66818632  0.33237840  1
  Fe  Fe27  1  0.16576598  0.16865362  0.49876449  1
  Cr  Cr28  1  0.99985547  0.99907807  0.66782868  1
  Fe  Fe29  1  0.16410632  0.16662773  0.83626061  1
  Cr  Cr30  1  0.16689912  0.49845386  0.49760305  1
  Ni  Ni31  1  0.99950431  0.33179183  0.66777625  1
  Ni  Ni32  1  0.16135691  0.49965683  0.83379496  1
  Cr  Cr33  1  0.16723672  0.83284331  0.50015883  1
  Ni  Ni34  1  0.00000749  0.66435083  0.66735224  1
  Ni  Ni35  1  0.16563893  0.83301766  0.83646290  1
  Fe  Fe36  1  0.50023171  0.16939602  0.49985274  1
  Cr  Cr37  1  0.33198356  0.00370054  0.66825777  1
  Cr  Cr38  1  0.50410221  0.16691552  0.83291842  1
  Ni  Ni39  1  0.49890958  0.49821655  0.50127754  1
  Cr  Cr40  1  0.33417975  0.33579076  0.66841766  1
  Fe  Fe41  1  0.50215188  0.50192763  0.83555821  1
  Cr  Cr42  1  0.49910456  0.83534238  0.49933931  1
  Cr  Cr43  1  0.33029892  0.66586435  0.67119833  1
  Cr  Cr44  1  0.49746054  0.83720857  0.83679103  1
  Ni  Ni45  1  0.83194105  0.16664260  0.50212977  1
  Ni  Ni46  1  0.66880926  0.00404074  0.66217309  1
  Fe  Fe47  1  0.83661418  0.16802446  0.83343093  1
  Cr  Cr48  1  0.83461814  0.49718456  0.50127040  1
  Ni  Ni49  1  0.66852020  0.33168928  0.66766331  1
  Ni  Ni50  1  0.83557846  0.49458605  0.83263343  1
  Fe  Fe51  1  0.83214167  0.83403072  0.50037271  1
  Cr  Cr52  1  0.66653550  0.66476813  0.66682800  1
  Cr  Cr53  1  0.83284225  0.83265178  0.83111574  1
" 