229,Ni60Fe20Cr20_7,-214.34950258364, 169.546696411113,Ni60Fe20Cr20,"# generated using pymatgen
 data_Cr17(FeNi)5
_symmetry_space_group_name_H-M   'P 1'
_cell_length_a   7.46704761
_cell_length_b   7.46704761
_cell_length_c   10.56000000
_cell_angle_alpha   90.00000000
_cell_angle_beta   90.00000000
_cell_angle_gamma   90.00000000
_symmetry_Int_Tables_number   1
_chemical_formula_structural   Cr17(FeNi)5
_chemical_formula_sum   'Cr34 Fe10 Ni10'
_cell_volume   588.79180800
_cell_formula_units_Z   2
loop_
 _symmetry_equiv_pos_site_id
 _symmetry_equiv_pos_as_xyz
  1  'x, y, z'
loop_
 _atom_site_type_symbol
 _atom_site_label
 _atom_site_symmetry_multiplicity
 _atom_site_fract_x
 _atom_site_fract_y
 _atom_site_fract_z
 _atom_site_occupancy
  Cr  Cr0  1  0.99917034  0.99926684  0.99848773  1
  Cr  Cr1  1  0.16515044  0.16603251  0.16841597  1
  Ni  Ni2  1  0.99914568  0.00185846  0.33542195  1
  Ni  Ni3  1  0.99736415  0.33371151  0.00156087  1
  Cr  Cr4  1  0.16375292  0.49908698  0.16708070  1
  Ni  Ni5  1  0.99915940  0.33132397  0.33357840  1
  Fe  Fe6  1  0.99988475  0.66797254  0.99937823  1
  Fe  Fe7  1  0.16436075  0.83516968  0.16787392  1
  Cr  Cr8  1  0.00113431  0.66651222  0.33428996  1
  Cr  Cr9  1  0.33314468  0.99757725  0.99831795  1
  Cr  Cr10  1  0.49926619  0.16473444  0.16982780  1
  Ni  Ni11  1  0.33168293  0.99982565  0.33214889  1
  Cr  Cr12  1  0.33140647  0.33406557  0.99878632  1
  Cr  Cr13  1  0.50133284  0.50132362  0.16666007  1
  Cr  Cr14  1  0.33292837  0.33459216  0.33671126  1
  Cr  Cr15  1  0.33130410  0.66768434  0.99831987  1
  Cr  Cr16  1  0.49785687  0.83353246  0.16723180  1
  Cr  Cr17  1  0.33219179  0.66601345  0.33472960  1
  Cr  Cr18  1  0.66745394  0.99888823  0.00084820  1
  Ni  Ni19  1  0.83722521  0.16687963  0.16827807  1
  Cr  Cr20  1  0.66928631  0.00199968  0.33506024  1
  Cr  Cr21  1  0.66651609  0.33085818  0.00068262  1
  Cr  Cr22  1  0.83430273  0.49883566  0.16353345  1
  Cr  Cr23  1  0.66867524  0.33219432  0.33572684  1
  Fe  Fe24  1  0.66579222  0.66712564  0.99822989  1
  Cr  Cr25  1  0.83279310  0.83258939  0.16832666  1
  Cr  Cr26  1  0.66744152  0.66670244  0.33521289  1
  Cr  Cr27  1  0.16552724  0.16569580  0.49925579  1
  Fe  Fe28  1  0.00102294  0.99746097  0.66503780  1
  Cr  Cr29  1  0.16477032  0.16483529  0.83236524  1
  Ni  Ni30  1  0.16761727  0.49939337  0.49953671  1
  Cr  Cr31  1  0.99788233  0.33204166  0.66495017  1
  Cr  Cr32  1  0.16366254  0.49969498  0.83351290  1
  Cr  Cr33  1  0.17008157  0.83388047  0.49927362  1
  Cr  Cr34  1  0.00353601  0.66674319  0.66440003  1
  Ni  Ni35  1  0.16912073  0.83027510  0.83189502  1
  Fe  Fe36  1  0.49952272  0.16764021  0.50063616  1
  Cr  Cr37  1  0.33384575  0.99761929  0.66996042  1
  Cr  Cr38  1  0.50040773  0.16727109  0.83150695  1
  Fe  Fe39  1  0.49965304  0.50066132  0.50297281  1
  Cr  Cr40  1  0.33253867  0.33714967  0.66543588  1
  Fe  Fe41  1  0.50016706  0.50362363  0.83157158  1
  Cr  Cr42  1  0.50163783  0.83361432  0.50020742  1
  Ni  Ni43  1  0.33633050  0.66533584  0.66729152  1
  Fe  Fe44  1  0.50119840  0.82932863  0.83146864  1
  Ni  Ni45  1  0.83361950  0.16786912  0.50037300  1
  Cr  Cr46  1  0.67045424  0.00215876  0.66414389  1
  Cr  Cr47  1  0.83401832  0.16863796  0.83154761  1
  Cr  Cr48  1  0.83354460  0.50082622  0.50034510  1
  Fe  Fe49  1  0.66418608  0.33727123  0.66437200  1
  Cr  Cr50  1  0.83013644  0.50056027  0.83583226  1
  Fe  Fe51  1  0.83676033  0.83588034  0.50111363  1
  Ni  Ni52  1  0.66528616  0.66728069  0.66658874  1
  Cr  Cr53  1  0.83374837  0.83089377  0.82968501  1
" 