110,Ni60Fe20Cr20_5,-214.429924469733, 167.83620523454,Ni60Fe20Cr20,"# generated using pymatgen
 data_Cr17(FeNi)5
_symmetry_space_group_name_H-M   'P 1'
_cell_length_a   7.46704761
_cell_length_b   7.46704761
_cell_length_c   10.56000000
_cell_angle_alpha   90.00000000
_cell_angle_beta   90.00000000
_cell_angle_gamma   90.00000000
_symmetry_Int_Tables_number   1
_chemical_formula_structural   Cr17(FeNi)5
_chemical_formula_sum   'Cr34 Fe10 Ni10'
_cell_volume   588.79180800
_cell_formula_units_Z   2
loop_
 _symmetry_equiv_pos_site_id
 _symmetry_equiv_pos_as_xyz
  1  'x, y, z'
loop_
 _atom_site_type_symbol
 _atom_site_label
 _atom_site_symmetry_multiplicity
 _atom_site_fract_x
 _atom_site_fract_y
 _atom_site_fract_z
 _atom_site_occupancy
  Ni  Ni0  1  0.00175300  0.99968667  0.00324908  1
  Ni  Ni1  1  0.16439173  0.16445752  0.16406153  1
  Cr  Cr2  1  0.99651387  0.00069326  0.33172948  1
  Ni  Ni3  1  0.00005176  0.33065180  0.00334227  1
  Cr  Cr4  1  0.16818014  0.49866283  0.16598314  1
  Cr  Cr5  1  0.00146266  0.33274656  0.33024483  1
  Cr  Cr6  1  0.99896488  0.66687169  0.99735391  1
  Cr  Cr7  1  0.16661539  0.83501293  0.16377956  1
  Cr  Cr8  1  0.99977747  0.66701698  0.33496171  1
  Ni  Ni9  1  0.33116878  0.99771645  0.99872638  1
  Cr  Cr10  1  0.49817218  0.16513303  0.16557535  1
  Cr  Cr11  1  0.33212368  0.00069407  0.33288524  1
  Cr  Cr12  1  0.33217118  0.33156241  0.00120358  1
  Cr  Cr13  1  0.50086822  0.50386480  0.16836826  1
  Fe  Fe14  1  0.33350301  0.33191151  0.33082887  1
  Fe  Fe15  1  0.33378241  0.66872371  0.99978566  1
  Fe  Fe16  1  0.49915332  0.83351417  0.16640872  1
  Fe  Fe17  1  0.33380207  0.66787388  0.33214995  1
  Cr  Cr18  1  0.66607459  0.99905705  0.00152819  1
  Fe  Fe19  1  0.83442684  0.16526713  0.16539082  1
  Ni  Ni20  1  0.66530257  0.99940664  0.33074964  1
  Cr  Cr21  1  0.66746507  0.33535765  0.99746723  1
  Cr  Cr22  1  0.83290948  0.50158258  0.16341429  1
  Cr  Cr23  1  0.66895907  0.33243878  0.33413354  1
  Ni  Ni24  1  0.66546788  0.66896841  0.00323710  1
  Fe  Fe25  1  0.83083470  0.83506092  0.16626265  1
  Fe  Fe26  1  0.66824863  0.67081236  0.33058531  1
  Cr  Cr27  1  0.16449715  0.16692794  0.49790085  1
  Cr  Cr28  1  0.00007481  0.00054388  0.66566371  1
  Cr  Cr29  1  0.16420627  0.16311847  0.83773523  1
  Cr  Cr30  1  0.16915058  0.49960375  0.49949726  1
  Ni  Ni31  1  0.99903710  0.33368138  0.66527541  1
  Cr  Cr32  1  0.16587893  0.49933389  0.83411973  1
  Cr  Cr33  1  0.16812779  0.83149166  0.50412325  1
  Fe  Fe34  1  0.00438704  0.66644885  0.66861636  1
  Ni  Ni35  1  0.16927913  0.83247670  0.83403509  1
  Cr  Cr36  1  0.50119859  0.16652262  0.50079829  1
  Cr  Cr37  1  0.33378950  0.99734347  0.67033373  1
  Fe  Fe38  1  0.49876623  0.16569989  0.83502990  1
  Cr  Cr39  1  0.50033664  0.50108824  0.49630219  1
  Cr  Cr40  1  0.33395846  0.33197204  0.66719861  1
  Cr  Cr41  1  0.50113893  0.50050553  0.83469373  1
  Cr  Cr42  1  0.49979258  0.83294168  0.49614878  1
  Ni  Ni43  1  0.33347669  0.66452735  0.66792478  1
  Cr  Cr44  1  0.49891225  0.83260901  0.83707355  1
  Ni  Ni45  1  0.83157564  0.16784151  0.49951529  1
  Cr  Cr46  1  0.66517314  0.00256483  0.66694817  1
  Cr  Cr47  1  0.83433286  0.16835277  0.83435320  1
  Cr  Cr48  1  0.83471654  0.49951214  0.50436939  1
  Fe  Fe49  1  0.66700339  0.33237288  0.66681141  1
  Cr  Cr50  1  0.83379176  0.49921199  0.83152785  1
  Cr  Cr51  1  0.83217136  0.83632674  0.49942835  1
  Cr  Cr52  1  0.66632855  0.66756585  0.66669464  1
  Cr  Cr53  1  0.83675351  0.83466923  0.83447495  1
" 