360,Ni60Fe20Cr20_6,-214.102203689503, 170.108979843207,Ni60Fe20Cr20,"# generated using pymatgen
 data_Cr17(FeNi)5
_symmetry_space_group_name_H-M   'P 1'
_cell_length_a   7.46704761
_cell_length_b   7.46704761
_cell_length_c   10.56000000
_cell_angle_alpha   90.00000000
_cell_angle_beta   90.00000000
_cell_angle_gamma   90.00000000
_symmetry_Int_Tables_number   1
_chemical_formula_structural   Cr17(FeNi)5
_chemical_formula_sum   'Cr34 Fe10 Ni10'
_cell_volume   588.79180800
_cell_formula_units_Z   2
loop_
 _symmetry_equiv_pos_site_id
 _symmetry_equiv_pos_as_xyz
  1  'x, y, z'
loop_
 _atom_site_type_symbol
 _atom_site_label
 _atom_site_symmetry_multiplicity
 _atom_site_fract_x
 _atom_site_fract_y
 _atom_site_fract_z
 _atom_site_occupancy
  Fe  Fe0  1  0.00037465  0.00351053  0.99712282  1
  Cr  Cr1  1  0.16759434  0.16767392  0.16417232  1
  Cr  Cr2  1  0.99761396  0.99959671  0.33432143  1
  Fe  Fe3  1  0.00070587  0.33253061  0.99778286  1
  Cr  Cr4  1  0.16663195  0.49965015  0.16685078  1
  Cr  Cr5  1  0.00019386  0.33558089  0.33516009  1
  Fe  Fe6  1  0.00036050  0.66540428  0.00044501  1
  Cr  Cr7  1  0.16618911  0.83319703  0.16329798  1
  Ni  Ni8  1  0.00282789  0.66672703  0.33515652  1
  Cr  Cr9  1  0.33471637  0.00096870  0.99488986  1
  Cr  Cr10  1  0.49856068  0.16671008  0.16893345  1
  Cr  Cr11  1  0.33314978  0.99750373  0.33430410  1
  Ni  Ni12  1  0.33052635  0.33493869  0.99895010  1
  Cr  Cr13  1  0.49815831  0.49922722  0.16864611  1
  Fe  Fe14  1  0.33170581  0.33469915  0.33420649  1
  Ni  Ni15  1  0.32974917  0.66367161  0.99969905  1
  Cr  Cr16  1  0.50030535  0.83216007  0.17012495  1
  Ni  Ni17  1  0.33133075  0.66331227  0.33427274  1
  Cr  Cr18  1  0.66881300  0.00146968  0.99836449  1
  Cr  Cr19  1  0.83501623  0.16614582  0.16610018  1
  Ni  Ni20  1  0.66975118  0.99870617  0.33594350  1
  Cr  Cr21  1  0.66636138  0.33201895  0.99759480  1
  Cr  Cr22  1  0.83491066  0.50159368  0.16516444  1
  Cr  Cr23  1  0.66871420  0.33188188  0.33336905  1
  Cr  Cr24  1  0.66381086  0.66590756  0.00171535  1
  Cr  Cr25  1  0.83527472  0.83289788  0.16770124  1
  Fe  Fe26  1  0.67018253  0.66797507  0.33497367  1
  Cr  Cr27  1  0.16559535  0.16975200  0.49977564  1
  Cr  Cr28  1  0.99866099  0.00191589  0.66654154  1
  Ni  Ni29  1  0.16481814  0.16979449  0.83565337  1
  Fe  Fe30  1  0.16643494  0.50286025  0.49945159  1
  Fe  Fe31  1  0.99803311  0.33303785  0.66687187  1
  Cr  Cr32  1  0.16373611  0.50005434  0.83321937  1
  Cr  Cr33  1  0.16532204  0.83353762  0.50094042  1
  Fe  Fe34  1  0.99925589  0.66704341  0.66457275  1
  Cr  Cr35  1  0.16449773  0.83337685  0.83532555  1
  Cr  Cr36  1  0.49945244  0.16633153  0.49909830  1
  Cr  Cr37  1  0.33196258  0.00226502  0.67168056  1
  Ni  Ni38  1  0.49970814  0.17008709  0.83250383  1
  Cr  Cr39  1  0.50096633  0.49930570  0.49880329  1
  Cr  Cr40  1  0.33082128  0.33435781  0.66672129  1
  Cr  Cr41  1  0.50027198  0.49917501  0.83252940  1
  Cr  Cr42  1  0.50282509  0.83239221  0.49946051  1
  Cr  Cr43  1  0.33336687  0.66655345  0.66653578  1
  Cr  Cr44  1  0.50108851  0.83130003  0.83181974  1
  Fe  Fe45  1  0.83155361  0.16461008  0.50123777  1
  Cr  Cr46  1  0.66821277  0.99939923  0.66730949  1
  Ni  Ni47  1  0.83516846  0.16888659  0.83145251  1
  Cr  Cr48  1  0.83480086  0.50057416  0.50323163  1
  Fe  Fe49  1  0.66725191  0.33136904  0.66741555  1
  Cr  Cr50  1  0.83308063  0.50009944  0.83144487  1
  Ni  Ni51  1  0.83435435  0.83049112  0.49861572  1
  Ni  Ni52  1  0.67031504  0.66455715  0.66487221  1
  Cr  Cr53  1  0.83491539  0.83121329  0.83365206  1
" 