111,Ni60Fe20Cr20_8,-214.318791722698, 172.059978136441,Ni60Fe20Cr20,"# generated using pymatgen
 data_Cr17(FeNi)5
_symmetry_space_group_name_H-M   'P 1'
_cell_length_a   7.46704761
_cell_length_b   7.46704761
_cell_length_c   10.56000000
_cell_angle_alpha   90.00000000
_cell_angle_beta   90.00000000
_cell_angle_gamma   90.00000000
_symmetry_Int_Tables_number   1
_chemical_formula_structural   Cr17(FeNi)5
_chemical_formula_sum   'Cr34 Fe10 Ni10'
_cell_volume   588.79180800
_cell_formula_units_Z   2
loop_
 _symmetry_equiv_pos_site_id
 _symmetry_equiv_pos_as_xyz
  1  'x, y, z'
loop_
 _atom_site_type_symbol
 _atom_site_label
 _atom_site_symmetry_multiplicity
 _atom_site_fract_x
 _atom_site_fract_y
 _atom_site_fract_z
 _atom_site_occupancy
  Cr  Cr0  1  0.00170984  0.99946061  0.00142253  1
  Cr  Cr1  1  0.16822261  0.16949332  0.16629826  1
  Cr  Cr2  1  0.99816652  0.99898391  0.33464004  1
  Cr  Cr3  1  0.99800891  0.33190307  0.99986518  1
  Fe  Fe4  1  0.16828553  0.50183579  0.16848122  1
  Cr  Cr5  1  0.00075392  0.33350672  0.33374962  1
  Cr  Cr6  1  0.00048244  0.66723758  0.99749279  1
  Cr  Cr7  1  0.16827002  0.83165093  0.16710725  1
  Fe  Fe8  1  0.00225633  0.66479287  0.33785377  1
  Ni  Ni9  1  0.33316105  0.99956349  0.99770879  1
  Cr  Cr10  1  0.49802863  0.16859215  0.16760180  1
  Cr  Cr11  1  0.33343914  0.99980846  0.33456373  1
  Cr  Cr12  1  0.33495844  0.33457470  0.00006849  1
  Cr  Cr13  1  0.50122319  0.50143971  0.16732608  1
  Ni  Ni14  1  0.33213619  0.33884697  0.33585588  1
  Cr  Cr15  1  0.33480444  0.66792570  0.99765936  1
  Cr  Cr16  1  0.49975813  0.83133121  0.16650674  1
  Ni  Ni17  1  0.32883521  0.66275578  0.33526959  1
  Cr  Cr18  1  0.66774497  0.00000725  0.00559936  1
  Fe  Fe19  1  0.83229035  0.16750521  0.16734389  1
  Cr  Cr20  1  0.66916557  0.00220228  0.33496395  1
  Ni  Ni21  1  0.66665862  0.33491947  0.99896399  1
  Cr  Cr22  1  0.83461370  0.49963270  0.16441984  1
  Cr  Cr23  1  0.66561271  0.33241655  0.33658103  1
  Ni  Ni24  1  0.66686566  0.66310143  0.99690430  1
  Cr  Cr25  1  0.83320996  0.82718380  0.17015026  1
  Cr  Cr26  1  0.66514176  0.66666201  0.33798795  1
  Cr  Cr27  1  0.16937649  0.16642630  0.50210202  1
  Cr  Cr28  1  0.99868424  0.99939560  0.66475386  1
  Cr  Cr29  1  0.16953901  0.16482226  0.83064165  1
  Fe  Fe30  1  0.16659787  0.50090798  0.49886383  1
  Cr  Cr31  1  0.99792226  0.33386561  0.66583336  1
  Cr  Cr32  1  0.16316937  0.49882801  0.83285799  1
  Ni  Ni33  1  0.16661008  0.82951689  0.50129708  1
  Cr  Cr34  1  0.00015456  0.66721538  0.66531994  1
  Fe  Fe35  1  0.16796330  0.83593428  0.83172206  1
  Ni  Ni36  1  0.50035551  0.16769275  0.50040198  1
  Fe  Fe37  1  0.33582642  0.99863125  0.66505280  1
  Cr  Cr38  1  0.50080586  0.16499910  0.83151639  1
  Fe  Fe39  1  0.49748358  0.49906055  0.49809620  1
  Cr  Cr40  1  0.33576432  0.33599411  0.66392794  1
  Fe  Fe41  1  0.50292334  0.49887490  0.83442754  1
  Cr  Cr42  1  0.49768652  0.83438439  0.49944844  1
  Cr  Cr43  1  0.33306747  0.66613744  0.66804164  1
  Cr  Cr44  1  0.50171923  0.83546527  0.83398382  1
  Ni  Ni45  1  0.83218618  0.16995966  0.49987157  1
  Ni  Ni46  1  0.66705179  0.00127207  0.66027030  1
  Cr  Cr47  1  0.83190106  0.16729330  0.83358090  1
  Ni  Ni48  1  0.83492303  0.50192167  0.50128322  1
  Cr  Cr49  1  0.66582966  0.33303097  0.66394261  1
  Fe  Fe50  1  0.82836426  0.49916042  0.83342822  1
  Fe  Fe51  1  0.83438591  0.83489277  0.50037784  1
  Cr  Cr52  1  0.66470353  0.66564170  0.66526264  1
  Cr  Cr53  1  0.83120131  0.83134172  0.83130852  1
" 