431,Ni60Fe20Cr20_11,-214.273999731077, 170.305526881445,Ni60Fe20Cr20,"# generated using pymatgen
 data_Cr17(FeNi)5
_symmetry_space_group_name_H-M   'P 1'
_cell_length_a   7.46704761
_cell_length_b   7.46704761
_cell_length_c   10.56000000
_cell_angle_alpha   90.00000000
_cell_angle_beta   90.00000000
_cell_angle_gamma   90.00000000
_symmetry_Int_Tables_number   1
_chemical_formula_structural   Cr17(FeNi)5
_chemical_formula_sum   'Cr34 Fe10 Ni10'
_cell_volume   588.79180800
_cell_formula_units_Z   2
loop_
 _symmetry_equiv_pos_site_id
 _symmetry_equiv_pos_as_xyz
  1  'x, y, z'
loop_
 _atom_site_type_symbol
 _atom_site_label
 _atom_site_symmetry_multiplicity
 _atom_site_fract_x
 _atom_site_fract_y
 _atom_site_fract_z
 _atom_site_occupancy
  Cr  Cr0  1  0.00115341  0.99835636  0.00044730  1
  Cr  Cr1  1  0.16327573  0.16687815  0.16978055  1
  Fe  Fe2  1  0.99995463  0.00240044  0.33621423  1
  Cr  Cr3  1  0.99712826  0.33429684  0.99545922  1
  Cr  Cr4  1  0.16794974  0.49933931  0.16456176  1
  Ni  Ni5  1  0.00021130  0.33583355  0.33716211  1
  Cr  Cr6  1  0.00114108  0.66658131  0.99878855  1
  Fe  Fe7  1  0.16848289  0.83165776  0.16796754  1
  Cr  Cr8  1  0.99908513  0.66640123  0.33463505  1
  Cr  Cr9  1  0.33560184  0.99692445  0.00048166  1
  Cr  Cr10  1  0.50130788  0.16606686  0.16555698  1
  Cr  Cr11  1  0.33227942  0.99782753  0.33313207  1
  Cr  Cr12  1  0.33396031  0.33192975  0.99642976  1
  Cr  Cr13  1  0.49892910  0.50150072  0.16766874  1
  Cr  Cr14  1  0.33185606  0.33226691  0.33752697  1
  Ni  Ni15  1  0.33458685  0.67058044  0.00177696  1
  Ni  Ni16  1  0.49810245  0.83019054  0.16763612  1
  Fe  Fe17  1  0.33360926  0.66693879  0.33251890  1
  Cr  Cr18  1  0.66498465  0.00005702  0.99628330  1
  Cr  Cr19  1  0.83450819  0.16707653  0.16640965  1
  Cr  Cr20  1  0.66442752  0.99706972  0.33452793  1
  Cr  Cr21  1  0.66737093  0.33296787  0.99407842  1
  Cr  Cr22  1  0.83349586  0.49869420  0.16673441  1
  Cr  Cr23  1  0.66886619  0.33539873  0.33445802  1
  Cr  Cr24  1  0.66690177  0.66838472  0.99998712  1
  Cr  Cr25  1  0.83261423  0.83556008  0.16986574  1
  Fe  Fe26  1  0.66604366  0.66628305  0.33443656  1
  Fe  Fe27  1  0.16484647  0.16798012  0.50199559  1
  Ni  Ni28  1  0.99795001  0.99670130  0.66251186  1
  Cr  Cr29  1  0.16571229  0.16525097  0.82931950  1
  Cr  Cr30  1  0.16809224  0.50117393  0.50396947  1
  Cr  Cr31  1  0.99890412  0.33571848  0.66665377  1
  Cr  Cr32  1  0.16713644  0.50277103  0.83149658  1
  Cr  Cr33  1  0.16515228  0.83464147  0.50153221  1
  Fe  Fe34  1  0.99699496  0.66732884  0.66534085  1
  Cr  Cr35  1  0.16802499  0.83219000  0.83258525  1
  Cr  Cr36  1  0.49968704  0.16661613  0.50338444  1
  Cr  Cr37  1  0.33486041  0.00138825  0.66762966  1
  Ni  Ni38  1  0.50172928  0.16469966  0.82999971  1
  Cr  Cr39  1  0.50110795  0.50221507  0.50133176  1
  Ni  Ni40  1  0.33358573  0.33484352  0.66659702  1
  Cr  Cr41  1  0.49836758  0.50348588  0.83197138  1
  Cr  Cr42  1  0.50162661  0.83118891  0.50244279  1
  Fe  Fe43  1  0.33492763  0.66861739  0.66825990  1
  Ni  Ni44  1  0.50123280  0.83422570  0.83221303  1
  Cr  Cr45  1  0.83402657  0.16381170  0.50025573  1
  Ni  Ni46  1  0.66698221  0.99564122  0.66862436  1
  Fe  Fe47  1  0.83266674  0.16399683  0.82907395  1
  Ni  Ni48  1  0.83386067  0.50195101  0.50016686  1
  Cr  Cr49  1  0.66627729  0.33360616  0.66928217  1
  Ni  Ni50  1  0.83333629  0.50173110  0.83128188  1
  Fe  Fe51  1  0.83176340  0.83009331  0.50229852  1
  Fe  Fe52  1  0.66903278  0.66665276  0.66704695  1
  Cr  Cr53  1  0.83428692  0.83401640  0.82820921  1
" 