130,Ni60Fe20Cr20_0,-214.555877098668, 174.291817284774,Ni60Fe20Cr20,"# generated using pymatgen
 data_Cr17(FeNi)5
_symmetry_space_group_name_H-M   'P 1'
_cell_length_a   7.46704761
_cell_length_b   7.46704761
_cell_length_c   10.56000000
_cell_angle_alpha   90.00000000
_cell_angle_beta   90.00000000
_cell_angle_gamma   90.00000000
_symmetry_Int_Tables_number   1
_chemical_formula_structural   Cr17(FeNi)5
_chemical_formula_sum   'Cr34 Fe10 Ni10'
_cell_volume   588.79180800
_cell_formula_units_Z   2
loop_
 _symmetry_equiv_pos_site_id
 _symmetry_equiv_pos_as_xyz
  1  'x, y, z'
loop_
 _atom_site_type_symbol
 _atom_site_label
 _atom_site_symmetry_multiplicity
 _atom_site_fract_x
 _atom_site_fract_y
 _atom_site_fract_z
 _atom_site_occupancy
  Cr  Cr0  1  0.99677685  0.99863809  0.00052321  1
  Cr  Cr1  1  0.16629074  0.16516896  0.16546741  1
  Cr  Cr2  1  0.99568579  0.99863461  0.33519668  1
  Fe  Fe3  1  0.00023322  0.33576957  0.99845206  1
  Fe  Fe4  1  0.16827036  0.49975288  0.16530372  1
  Cr  Cr5  1  0.00267034  0.33396940  0.33083573  1
  Fe  Fe6  1  0.99817107  0.66605288  0.99791982  1
  Cr  Cr7  1  0.16947166  0.83211610  0.16432854  1
  Cr  Cr8  1  0.99963128  0.66781943  0.33153952  1
  Ni  Ni9  1  0.33824659  0.99887206  0.99815645  1
  Cr  Cr10  1  0.50048235  0.16536868  0.16491845  1
  Cr  Cr11  1  0.33438091  0.00017629  0.33084466  1
  Cr  Cr12  1  0.33271614  0.33320671  0.99827920  1
  Cr  Cr13  1  0.50314638  0.50156381  0.16893007  1
  Ni  Ni14  1  0.33511778  0.33685672  0.33082080  1
  Cr  Cr15  1  0.33498784  0.66463462  0.99913763  1
  Ni  Ni16  1  0.49960044  0.83238506  0.16367861  1
  Ni  Ni17  1  0.33301553  0.66384818  0.32933357  1
  Ni  Ni18  1  0.66585610  0.99637200  0.99975991  1
  Cr  Cr19  1  0.83107897  0.17022220  0.16415378  1
  Cr  Cr20  1  0.66755717  0.99971322  0.33156772  1
  Fe  Fe21  1  0.66506240  0.33280413  0.99803222  1
  Cr  Cr22  1  0.83343044  0.50027838  0.16248043  1
  Ni  Ni23  1  0.66559831  0.33451138  0.33190883  1
  Fe  Fe24  1  0.66721570  0.66953730  0.99883996  1
  Fe  Fe25  1  0.83069466  0.83360298  0.16268120  1
  Cr  Cr26  1  0.66690609  0.67060623  0.33122199  1
  Cr  Cr27  1  0.16892996  0.16633950  0.50019635  1
  Cr  Cr28  1  0.99657905  0.99895572  0.66359721  1
  Cr  Cr29  1  0.16695955  0.16413694  0.83436804  1
  Cr  Cr30  1  0.16959411  0.50171407  0.49794775  1
  Cr  Cr31  1  0.00042705  0.33617711  0.66933447  1
  Fe  Fe32  1  0.16193585  0.50108529  0.83663380  1
  Cr  Cr33  1  0.16816116  0.83186242  0.50187903  1
  Cr  Cr34  1  0.99666014  0.66637402  0.66904474  1
  Cr  Cr35  1  0.16757736  0.83394302  0.83345301  1
  Cr  Cr36  1  0.50152431  0.17037238  0.49952767  1
  Cr  Cr37  1  0.33764824  0.00066109  0.67120309  1
  Fe  Fe38  1  0.50428292  0.16455626  0.83718658  1
  Cr  Cr39  1  0.50193322  0.49955349  0.49717462  1
  Cr  Cr40  1  0.33646509  0.33484316  0.67192019  1
  Fe  Fe41  1  0.50484846  0.49954544  0.83655626  1
  Cr  Cr42  1  0.49600773  0.83019354  0.49880004  1
  Cr  Cr43  1  0.33496247  0.66297023  0.67132011  1
  Ni  Ni44  1  0.50143161  0.83220346  0.83744842  1
  Cr  Cr45  1  0.83095277  0.17172921  0.50041733  1
  Cr  Cr46  1  0.66679058  0.99878389  0.66771509  1
  Cr  Cr47  1  0.83223586  0.16874605  0.83470047  1
  Cr  Cr48  1  0.82984269  0.49905299  0.50067400  1
  Ni  Ni49  1  0.66497374  0.33465340  0.67130779  1
  Ni  Ni50  1  0.82959795  0.49992891  0.83709811  1
  Fe  Fe51  1  0.83098345  0.83241628  0.50081188  1
  Cr  Cr52  1  0.66612823  0.66658584  0.66979219  1
  Ni  Ni53  1  0.83027132  0.83013438  0.83557960  1
" 