41,Ni60Fe20Cr20_13,-213.643484422045, 165.039959224552,Ni60Fe20Cr20,"# generated using pymatgen
 data_Cr17(FeNi)5
_symmetry_space_group_name_H-M   'P 1'
_cell_length_a   7.46704761
_cell_length_b   7.46704761
_cell_length_c   10.56000000
_cell_angle_alpha   90.00000000
_cell_angle_beta   90.00000000
_cell_angle_gamma   90.00000000
_symmetry_Int_Tables_number   1
_chemical_formula_structural   Cr17(FeNi)5
_chemical_formula_sum   'Cr34 Fe10 Ni10'
_cell_volume   588.79180800
_cell_formula_units_Z   2
loop_
 _symmetry_equiv_pos_site_id
 _symmetry_equiv_pos_as_xyz
  1  'x, y, z'
loop_
 _atom_site_type_symbol
 _atom_site_label
 _atom_site_symmetry_multiplicity
 _atom_site_fract_x
 _atom_site_fract_y
 _atom_site_fract_z
 _atom_site_occupancy
  Ni  Ni0  1  0.99836228  0.99700319  0.99974092  1
  Cr  Cr1  1  0.16796146  0.16593109  0.16317004  1
  Cr  Cr2  1  0.99964938  0.00287382  0.33676227  1
  Cr  Cr3  1  0.99847029  0.33326819  0.00010455  1
  Cr  Cr4  1  0.16607881  0.50111055  0.16872639  1
  Fe  Fe5  1  0.00248457  0.33448217  0.33460958  1
  Ni  Ni6  1  0.00128499  0.66979970  0.00002900  1
  Cr  Cr7  1  0.16481671  0.83283150  0.16392714  1
  Fe  Fe8  1  0.00063909  0.66684845  0.33496697  1
  Fe  Fe9  1  0.33570197  0.99667760  0.99976668  1
  Cr  Cr10  1  0.50013926  0.16370852  0.16470145  1
  Cr  Cr11  1  0.33385585  0.99610698  0.33197744  1
  Cr  Cr12  1  0.33550471  0.33740821  0.99852862  1
  Cr  Cr13  1  0.49896840  0.50028428  0.16887698  1
  Fe  Fe14  1  0.33227258  0.33211217  0.33367363  1
  Ni  Ni15  1  0.33229661  0.67042706  0.00241320  1
  Fe  Fe16  1  0.49935676  0.83176236  0.16738608  1
  Fe  Fe17  1  0.33223705  0.66424681  0.33426731  1
  Ni  Ni18  1  0.66674458  0.99652671  0.00281921  1
  Cr  Cr19  1  0.83417504  0.16495164  0.16653882  1
  Fe  Fe20  1  0.66643492  0.99962875  0.33375136  1
  Cr  Cr21  1  0.66725366  0.33210568  0.99812415  1
  Cr  Cr22  1  0.83502314  0.50365369  0.16668558  1
  Cr  Cr23  1  0.66887845  0.33315729  0.33311734  1
  Cr  Cr24  1  0.66289437  0.66613734  0.00027018  1
  Cr  Cr25  1  0.83237167  0.83311092  0.16724309  1
  Fe  Fe26  1  0.66462909  0.66953774  0.33398834  1
  Cr  Cr27  1  0.17130432  0.16854747  0.50124620  1
  Cr  Cr28  1  0.00209740  0.00018301  0.66542927  1
  Cr  Cr29  1  0.16985213  0.16400903  0.83613260  1
  Ni  Ni30  1  0.16545827  0.49819134  0.49707545  1
  Cr  Cr31  1  0.99950382  0.33405778  0.66600501  1
  Cr  Cr32  1  0.16519684  0.50325786  0.83392495  1
  Cr  Cr33  1  0.16560830  0.83042636  0.50220878  1
  Ni  Ni34  1  0.99976052  0.66494625  0.66485558  1
  Cr  Cr35  1  0.16486171  0.83351466  0.83492926  1
  Cr  Cr36  1  0.50126663  0.16647413  0.50375060  1
  Ni  Ni37  1  0.33561343  0.99982268  0.66786701  1
  Cr  Cr38  1  0.50112157  0.16514380  0.83037456  1
  Cr  Cr39  1  0.49789885  0.49766957  0.50196653  1
  Fe  Fe40  1  0.33248553  0.33313947  0.66702589  1
  Cr  Cr41  1  0.50012590  0.50041051  0.82865255  1
  Cr  Cr42  1  0.50123306  0.83411387  0.50019351  1
  Cr  Cr43  1  0.33107119  0.66741949  0.66542257  1
  Cr  Cr44  1  0.50161667  0.83525334  0.83216784  1
  Fe  Fe45  1  0.83292946  0.16934551  0.50077440  1
  Ni  Ni46  1  0.66650304  0.00222219  0.66301836  1
  Cr  Cr47  1  0.83148973  0.16259207  0.83324257  1
  Cr  Cr48  1  0.83355246  0.50320187  0.50042283  1
  Ni  Ni49  1  0.66740119  0.33362321  0.66686649  1
  Cr  Cr50  1  0.83270966  0.50405827  0.83235264  1
  Cr  Cr51  1  0.83151181  0.83416582  0.50205130  1
  Ni  Ni52  1  0.66612583  0.66671697  0.66508875  1
  Cr  Cr53  1  0.83321499  0.83180106  0.83078817  1
" 