309,Ni60Fe20Cr20_12,-214.33372337589, 169.723626394332,Ni60Fe20Cr20,"# generated using pymatgen
 data_Cr17(FeNi)5
_symmetry_space_group_name_H-M   'P 1'
_cell_length_a   7.46704761
_cell_length_b   7.46704761
_cell_length_c   10.56000000
_cell_angle_alpha   90.00000000
_cell_angle_beta   90.00000000
_cell_angle_gamma   90.00000000
_symmetry_Int_Tables_number   1
_chemical_formula_structural   Cr17(FeNi)5
_chemical_formula_sum   'Cr34 Fe10 Ni10'
_cell_volume   588.79180800
_cell_formula_units_Z   2
loop_
 _symmetry_equiv_pos_site_id
 _symmetry_equiv_pos_as_xyz
  1  'x, y, z'
loop_
 _atom_site_type_symbol
 _atom_site_label
 _atom_site_symmetry_multiplicity
 _atom_site_fract_x
 _atom_site_fract_y
 _atom_site_fract_z
 _atom_site_occupancy
  Cr  Cr0  1  0.00419576  0.99823234  0.00440283  1
  Ni  Ni1  1  0.16715174  0.16629066  0.16689038  1
  Cr  Cr2  1  0.00140292  0.99670230  0.33248523  1
  Cr  Cr3  1  0.00403839  0.33286485  0.99763516  1
  Cr  Cr4  1  0.16989472  0.50191529  0.16847162  1
  Cr  Cr5  1  0.00072847  0.33446220  0.33202677  1
  Cr  Cr6  1  0.99907567  0.66443616  0.00321878  1
  Ni  Ni7  1  0.16529900  0.83300627  0.17106735  1
  Ni  Ni8  1  0.99997199  0.66554834  0.33376629  1
  Cr  Cr9  1  0.33297955  0.00199667  0.99922243  1
  Cr  Cr10  1  0.49987179  0.16922842  0.17087022  1
  Cr  Cr11  1  0.33217234  0.00213167  0.33488974  1
  Cr  Cr12  1  0.33406076  0.33066054  0.99732608  1
  Cr  Cr13  1  0.50037489  0.50082458  0.17121350  1
  Fe  Fe14  1  0.33295810  0.33375342  0.33487499  1
  Cr  Cr15  1  0.33322517  0.66874925  0.99886940  1
  Cr  Cr16  1  0.49623731  0.83255543  0.16557729  1
  Fe  Fe17  1  0.33102647  0.67147599  0.33585155  1
  Cr  Cr18  1  0.66243437  0.99913066  0.99900390  1
  Cr  Cr19  1  0.83376984  0.16560623  0.16615716  1
  Cr  Cr20  1  0.66343464  0.99820319  0.33613605  1
  Cr  Cr21  1  0.66681053  0.33564177  0.00163293  1
  Ni  Ni22  1  0.83547416  0.49888456  0.16989492  1
  Fe  Fe23  1  0.66851608  0.33355697  0.33532560  1
  Cr  Cr24  1  0.66734323  0.66716940  0.00160773  1
  Fe  Fe25  1  0.83480779  0.83052994  0.16854890  1
  Cr  Cr26  1  0.66919184  0.66622821  0.33332674  1
  Cr  Cr27  1  0.16553500  0.16802643  0.50103509  1
  Cr  Cr28  1  0.99949474  0.99747685  0.66371965  1
  Fe  Fe29  1  0.16996565  0.16507560  0.83158355  1
  Cr  Cr30  1  0.16811531  0.50183498  0.50058778  1
  Cr  Cr31  1  0.00224944  0.33381514  0.67002982  1
  Fe  Fe32  1  0.16991899  0.49987910  0.83068611  1
  Fe  Fe33  1  0.16839848  0.83088183  0.49853600  1
  Cr  Cr34  1  0.99910081  0.66467130  0.66305866  1
  Cr  Cr35  1  0.16733318  0.82998969  0.83073686  1
  Fe  Fe36  1  0.49808089  0.16790642  0.50060403  1
  Cr  Cr37  1  0.33562243  0.00027763  0.66530167  1
  Ni  Ni38  1  0.50076728  0.16669652  0.82792577  1
  Cr  Cr39  1  0.49749197  0.50147865  0.49759571  1
  Ni  Ni40  1  0.33344552  0.33382285  0.66817675  1
  Cr  Cr41  1  0.49761601  0.50351798  0.83198364  1
  Ni  Ni42  1  0.49918430  0.83282284  0.50262716  1
  Ni  Ni43  1  0.33366943  0.66680178  0.66523279  1
  Ni  Ni44  1  0.49803371  0.83613378  0.83033599  1
  Cr  Cr45  1  0.83125378  0.16532264  0.50137762  1
  Ni  Ni46  1  0.66300422  0.99876628  0.66377236  1
  Cr  Cr47  1  0.83289563  0.16385136  0.83257260  1
  Fe  Fe48  1  0.83351094  0.50037357  0.49760001  1
  Cr  Cr49  1  0.66507736  0.33406377  0.66376142  1
  Cr  Cr50  1  0.83436334  0.50003319  0.83298379  1
  Fe  Fe51  1  0.83273286  0.83104404  0.49912884  1
  Cr  Cr52  1  0.66554468  0.66988188  0.66559016  1
  Cr  Cr53  1  0.83114650  0.83576860  0.83316262  1
" 