155,Ni60Fe20Cr20_2,-214.38256053691, 170.380306657944,Ni60Fe20Cr20,"# generated using pymatgen
 data_Cr17(FeNi)5
_symmetry_space_group_name_H-M   'P 1'
_cell_length_a   7.46704761
_cell_length_b   7.46704761
_cell_length_c   10.56000000
_cell_angle_alpha   90.00000000
_cell_angle_beta   90.00000000
_cell_angle_gamma   90.00000000
_symmetry_Int_Tables_number   1
_chemical_formula_structural   Cr17(FeNi)5
_chemical_formula_sum   'Cr34 Fe10 Ni10'
_cell_volume   588.79180800
_cell_formula_units_Z   2
loop_
 _symmetry_equiv_pos_site_id
 _symmetry_equiv_pos_as_xyz
  1  'x, y, z'
loop_
 _atom_site_type_symbol
 _atom_site_label
 _atom_site_symmetry_multiplicity
 _atom_site_fract_x
 _atom_site_fract_y
 _atom_site_fract_z
 _atom_site_occupancy
  Ni  Ni0  1  0.00024071  0.00097807  0.99798599  1
  Cr  Cr1  1  0.16833518  0.16652920  0.16765096  1
  Cr  Cr2  1  0.00186080  0.99979719  0.33474391  1
  Cr  Cr3  1  0.99896695  0.33324035  0.99939463  1
  Cr  Cr4  1  0.16897489  0.49964778  0.16712745  1
  Cr  Cr5  1  0.99904780  0.33456851  0.33799366  1
  Cr  Cr6  1  0.00082410  0.66711899  0.99950507  1
  Cr  Cr7  1  0.16666366  0.83472040  0.16807524  1
  Cr  Cr8  1  0.99988476  0.66399105  0.33613897  1
  Cr  Cr9  1  0.33260505  0.99914018  0.99970440  1
  Cr  Cr10  1  0.49992046  0.16827461  0.16693814  1
  Ni  Ni11  1  0.34070667  0.99974264  0.33543744  1
  Fe  Fe12  1  0.33240400  0.33576867  0.99805329  1
  Fe  Fe13  1  0.49961269  0.50158988  0.16724772  1
  Cr  Cr14  1  0.33422585  0.33347643  0.33479481  1
  Cr  Cr15  1  0.33432573  0.66620972  0.99846730  1
  Fe  Fe16  1  0.50079168  0.83510000  0.16703877  1
  Cr  Cr17  1  0.33395285  0.67135350  0.33368647  1
  Fe  Fe18  1  0.66690451  0.99884783  0.99873312  1
  Cr  Cr19  1  0.83187278  0.16402768  0.16595877  1
  Ni  Ni20  1  0.66218775  0.99827862  0.33368736  1
  Cr  Cr21  1  0.66495721  0.33507660  0.99912313  1
  Cr  Cr22  1  0.83154613  0.50050241  0.17087354  1
  Cr  Cr23  1  0.66788128  0.33171281  0.33714548  1
  Cr  Cr24  1  0.66449827  0.66537987  0.99898785  1
  Cr  Cr25  1  0.83188140  0.83407114  0.16449655  1
  Cr  Cr26  1  0.66502110  0.66742196  0.33597752  1
  Cr  Cr27  1  0.17228103  0.16996281  0.50083174  1
  Fe  Fe28  1  0.00079990  0.00136535  0.66628492  1
  Cr  Cr29  1  0.16683440  0.16993209  0.83126549  1
  Ni  Ni30  1  0.16663019  0.50161751  0.50412546  1
  Ni  Ni31  1  0.00180293  0.33647346  0.66381035  1
  Fe  Fe32  1  0.16736020  0.50020709  0.82927375  1
  Cr  Cr33  1  0.16778390  0.83177456  0.50149996  1
  Ni  Ni34  1  0.00141147  0.66333291  0.66512977  1
  Cr  Cr35  1  0.16458525  0.83222601  0.82962188  1
  Ni  Ni36  1  0.50163500  0.16452488  0.50016215  1
  Cr  Cr37  1  0.33666887  0.00093181  0.66297198  1
  Cr  Cr38  1  0.49921818  0.16904407  0.83264809  1
  Cr  Cr39  1  0.49583490  0.49934582  0.50338770  1
  Ni  Ni40  1  0.33180053  0.33662524  0.66821967  1
  Fe  Fe41  1  0.49666078  0.50018983  0.82968343  1
  Fe  Fe42  1  0.50064456  0.83497995  0.50230730  1
  Ni  Ni43  1  0.33093575  0.66545034  0.66705600  1
  Cr  Cr44  1  0.50162341  0.83193845  0.82917726  1
  Cr  Cr45  1  0.83219232  0.16261898  0.50163181  1
  Ni  Ni46  1  0.66616051  0.99816378  0.66624303  1
  Cr  Cr47  1  0.83363356  0.16387198  0.83248211  1
  Fe  Fe48  1  0.83431775  0.49938172  0.50430662  1
  Cr  Cr49  1  0.66637352  0.32956701  0.66457179  1
  Cr  Cr50  1  0.83307657  0.50105030  0.82753234  1
  Cr  Cr51  1  0.83159572  0.83084478  0.50463685  1
  Fe  Fe52  1  0.66404263  0.66504898  0.66531213  1
  Cr  Cr53  1  0.83400192  0.83296418  0.83085887  1
" 