408,Ni80Fe10Cr10_1,-206.4144407981, 191.098208093906,Ni80Fe10Cr10,"# generated using pymatgen
 data_Cr44(FeNi)5
_symmetry_space_group_name_H-M   'P 1'
_cell_length_a   7.46704761
_cell_length_b   7.46704761
_cell_length_c   10.56000000
_cell_angle_alpha   90.00000000
_cell_angle_beta   90.00000000
_cell_angle_gamma   90.00000000
_symmetry_Int_Tables_number   1
_chemical_formula_structural   Cr44(FeNi)5
_chemical_formula_sum   'Cr44 Fe5 Ni5'
_cell_volume   588.79180800
_cell_formula_units_Z   1
loop_
 _symmetry_equiv_pos_site_id
 _symmetry_equiv_pos_as_xyz
  1  'x, y, z'
loop_
 _atom_site_type_symbol
 _atom_site_label
 _atom_site_symmetry_multiplicity
 _atom_site_fract_x
 _atom_site_fract_y
 _atom_site_fract_z
 _atom_site_occupancy
  Cr  Cr0  1  0.99669581  0.99927235  0.00014648  1
  Cr  Cr1  1  0.16629049  0.16599123  0.16642646  1
  Cr  Cr2  1  0.99766264  0.99779424  0.33453707  1
  Cr  Cr3  1  0.00087890  0.33330772  0.99906840  1
  Fe  Fe4  1  0.16563462  0.50181026  0.16606478  1
  Cr  Cr5  1  0.00269799  0.33502281  0.33256848  1
  Ni  Ni6  1  0.00214981  0.66836262  0.00240025  1
  Cr  Cr7  1  0.16591836  0.83399873  0.16474050  1
  Cr  Cr8  1  0.00164540  0.66855963  0.33391751  1
  Fe  Fe9  1  0.33206397  0.00030706  0.00052422  1
  Cr  Cr10  1  0.49816805  0.16501723  0.16805886  1
  Cr  Cr11  1  0.33150045  0.99903117  0.33441823  1
  Cr  Cr12  1  0.33319613  0.33395550  0.00193428  1
  Cr  Cr13  1  0.50262784  0.50054083  0.16771555  1
  Cr  Cr14  1  0.33177902  0.33629057  0.33270090  1
  Cr  Cr15  1  0.33193723  0.66463214  0.00100946  1
  Cr  Cr16  1  0.50030966  0.83333837  0.16518876  1
  Cr  Cr17  1  0.33116175  0.66447400  0.33448405  1
  Cr  Cr18  1  0.66810299  0.00052484  0.00010870  1
  Cr  Cr19  1  0.83383482  0.16725314  0.16763512  1
  Cr  Cr20  1  0.66962705  0.99841080  0.33269546  1
  Cr  Cr21  1  0.66617846  0.33043294  0.99683709  1
  Cr  Cr22  1  0.83549893  0.50222591  0.16490321  1
  Cr  Cr23  1  0.66632137  0.33291829  0.33301082  1
  Cr  Cr24  1  0.66887520  0.66793946  0.99914382  1
  Ni  Ni25  1  0.83520802  0.83117286  0.16659588  1
  Cr  Cr26  1  0.66883747  0.66921462  0.33403947  1
  Cr  Cr27  1  0.16539371  0.16706926  0.50125643  1
  Cr  Cr28  1  0.99807367  0.99990241  0.66528086  1
  Cr  Cr29  1  0.16505701  0.16484703  0.83202810  1
  Ni  Ni30  1  0.16399710  0.50058334  0.49957172  1
  Ni  Ni31  1  0.00182568  0.33198269  0.66770488  1
  Cr  Cr32  1  0.16420584  0.50104431  0.83424036  1
  Fe  Fe33  1  0.16578612  0.83269885  0.50052728  1
  Cr  Cr34  1  0.00265826  0.66681613  0.66474827  1
  Cr  Cr35  1  0.16785800  0.83481251  0.83424371  1
  Cr  Cr36  1  0.49896191  0.16565703  0.49936003  1
  Fe  Fe37  1  0.33122509  0.99940045  0.66483068  1
  Cr  Cr38  1  0.49632642  0.16382320  0.83263420  1
  Cr  Cr39  1  0.50169763  0.50028178  0.50006783  1
  Cr  Cr40  1  0.33083768  0.33552487  0.66533227  1
  Cr  Cr41  1  0.50100307  0.50161392  0.83202149  1
  Cr  Cr42  1  0.49918918  0.83422772  0.50062402  1
  Cr  Cr43  1  0.33170854  0.66637517  0.66414744  1
  Cr  Cr44  1  0.49625934  0.83443474  0.83413061  1
  Cr  Cr45  1  0.83416996  0.16908676  0.50019907  1
  Cr  Cr46  1  0.66792733  0.99974693  0.66749373  1
  Ni  Ni47  1  0.83469146  0.16676834  0.83168888  1
  Cr  Cr48  1  0.83550376  0.49948725  0.50260743  1
  Cr  Cr49  1  0.66766344  0.33090185  0.66991341  1
  Cr  Cr50  1  0.83646618  0.49860499  0.83255990  1
  Fe  Fe51  1  0.83461901  0.83289575  0.50014296  1
  Cr  Cr52  1  0.66685009  0.66873929  0.66712121  1
  Cr  Cr53  1  0.83524211  0.83087411  0.83464937  1
" 