200,Ni80Fe10Cr10_9,-206.473346221719, 189.107808831627,Ni80Fe10Cr10,"# generated using pymatgen
 data_Cr44(FeNi)5
_symmetry_space_group_name_H-M   'P 1'
_cell_length_a   7.46704761
_cell_length_b   7.46704761
_cell_length_c   10.56000000
_cell_angle_alpha   90.00000000
_cell_angle_beta   90.00000000
_cell_angle_gamma   90.00000000
_symmetry_Int_Tables_number   1
_chemical_formula_structural   Cr44(FeNi)5
_chemical_formula_sum   'Cr44 Fe5 Ni5'
_cell_volume   588.79180800
_cell_formula_units_Z   1
loop_
 _symmetry_equiv_pos_site_id
 _symmetry_equiv_pos_as_xyz
  1  'x, y, z'
loop_
 _atom_site_type_symbol
 _atom_site_label
 _atom_site_symmetry_multiplicity
 _atom_site_fract_x
 _atom_site_fract_y
 _atom_site_fract_z
 _atom_site_occupancy
  Cr  Cr0  1  0.00121742  0.00182476  0.00125343  1
  Ni  Ni1  1  0.16507244  0.16418333  0.16984560  1
  Fe  Fe2  1  0.99919673  0.00075198  0.33566986  1
  Cr  Cr3  1  0.00162888  0.33162979  0.00150070  1
  Cr  Cr4  1  0.16675521  0.50034193  0.16676055  1
  Cr  Cr5  1  0.00192110  0.33088417  0.33282403  1
  Cr  Cr6  1  0.99903494  0.66744891  0.99836128  1
  Cr  Cr7  1  0.16614046  0.83467460  0.16689418  1
  Cr  Cr8  1  0.99816852  0.66757347  0.33579092  1
  Cr  Cr9  1  0.33322190  0.00040526  0.99797984  1
  Cr  Cr10  1  0.50048568  0.16565430  0.16742931  1
  Cr  Cr11  1  0.33205127  0.00217607  0.33491677  1
  Cr  Cr12  1  0.33114196  0.33111132  0.00259871  1
  Cr  Cr13  1  0.50025953  0.49977492  0.16757024  1
  Cr  Cr14  1  0.33240721  0.33079157  0.33531372  1
  Cr  Cr15  1  0.33561496  0.66783838  0.99980414  1
  Cr  Cr16  1  0.50026889  0.83519516  0.16715424  1
  Cr  Cr17  1  0.33396880  0.66659880  0.33228327  1
  Cr  Cr18  1  0.66624743  0.99761989  0.99777465  1
  Cr  Cr19  1  0.83263003  0.16517219  0.16709237  1
  Fe  Fe20  1  0.66680543  0.00109188  0.33606269  1
  Cr  Cr21  1  0.66670786  0.33363478  0.99881682  1
  Cr  Cr22  1  0.83304043  0.49988709  0.16571501  1
  Cr  Cr23  1  0.66648480  0.33327008  0.33470199  1
  Cr  Cr24  1  0.66624798  0.66845519  0.99855415  1
  Cr  Cr25  1  0.83378249  0.83582226  0.17031419  1
  Cr  Cr26  1  0.66693798  0.66906969  0.33460667  1
  Fe  Fe27  1  0.16821546  0.16485452  0.49995275  1
  Cr  Cr28  1  0.00100613  0.00065687  0.66449845  1
  Cr  Cr29  1  0.16738407  0.16585381  0.83154059  1
  Cr  Cr30  1  0.16679133  0.50179576  0.50161444  1
  Cr  Cr31  1  0.00014666  0.33243363  0.66597444  1
  Cr  Cr32  1  0.16657547  0.50117734  0.83150538  1
  Cr  Cr33  1  0.16540832  0.83394347  0.50155563  1
  Fe  Fe34  1  0.99968510  0.66828229  0.66562205  1
  Cr  Cr35  1  0.16878129  0.83355757  0.83131357  1
  Ni  Ni36  1  0.50074435  0.16419545  0.50175177  1
  Ni  Ni37  1  0.33338362  0.00013855  0.66617188  1
  Cr  Cr38  1  0.50053228  0.16535692  0.83030277  1
  Cr  Cr39  1  0.50098340  0.49701296  0.50024373  1
  Cr  Cr40  1  0.33428443  0.32909220  0.66261110  1
  Cr  Cr41  1  0.49989581  0.49804876  0.83195603  1
  Cr  Cr42  1  0.49843779  0.83596859  0.49963663  1
  Cr  Cr43  1  0.33551465  0.66900951  0.66740096  1
  Ni  Ni44  1  0.49862072  0.83448142  0.83220852  1
  Cr  Cr45  1  0.83062778  0.16627279  0.49959197  1
  Cr  Cr46  1  0.66419610  0.99932211  0.66641057  1
  Cr  Cr47  1  0.83192883  0.16799848  0.83343014  1
  Cr  Cr48  1  0.83395193  0.50002490  0.50325147  1
  Ni  Ni49  1  0.66664427  0.33252055  0.66561006  1
  Cr  Cr50  1  0.83414472  0.49827310  0.83075249  1
  Fe  Fe51  1  0.83230381  0.83498170  0.49962505  1
  Cr  Cr52  1  0.66746078  0.66741980  0.66681984  1
  Cr  Cr53  1  0.83491061  0.83444518  0.83105836  1
" 