376,Ni80Fe10Cr10_4,-206.410386069264, 190.441387953851,Ni80Fe10Cr10,"# generated using pymatgen
 data_Cr44(FeNi)5
_symmetry_space_group_name_H-M   'P 1'
_cell_length_a   7.46704761
_cell_length_b   7.46704761
_cell_length_c   10.56000000
_cell_angle_alpha   90.00000000
_cell_angle_beta   90.00000000
_cell_angle_gamma   90.00000000
_symmetry_Int_Tables_number   1
_chemical_formula_structural   Cr44(FeNi)5
_chemical_formula_sum   'Cr44 Fe5 Ni5'
_cell_volume   588.79180800
_cell_formula_units_Z   1
loop_
 _symmetry_equiv_pos_site_id
 _symmetry_equiv_pos_as_xyz
  1  'x, y, z'
loop_
 _atom_site_type_symbol
 _atom_site_label
 _atom_site_symmetry_multiplicity
 _atom_site_fract_x
 _atom_site_fract_y
 _atom_site_fract_z
 _atom_site_occupancy
  Cr  Cr0  1  0.00136541  0.99743667  0.00053345  1
  Cr  Cr1  1  0.16692075  0.16799844  0.16679142  1
  Cr  Cr2  1  0.99888331  0.99904340  0.33424120  1
  Fe  Fe3  1  0.00249940  0.33373238  0.99979025  1
  Cr  Cr4  1  0.16752685  0.49950325  0.17008061  1
  Cr  Cr5  1  0.00113838  0.33391935  0.33383677  1
  Cr  Cr6  1  0.00130050  0.66747304  0.99999055  1
  Fe  Fe7  1  0.16643089  0.83185860  0.16895847  1
  Cr  Cr8  1  0.00043808  0.66710355  0.33624630  1
  Cr  Cr9  1  0.33129814  0.99812342  0.99945268  1
  Cr  Cr10  1  0.49825821  0.16675708  0.16883732  1
  Cr  Cr11  1  0.33307064  0.00234822  0.33288931  1
  Cr  Cr12  1  0.33541672  0.33393547  0.99884524  1
  Cr  Cr13  1  0.49797322  0.50174993  0.16879681  1
  Ni  Ni14  1  0.33377798  0.33570022  0.33634390  1
  Cr  Cr15  1  0.33138370  0.66597587  0.99838842  1
  Cr  Cr16  1  0.49655010  0.83166663  0.16875878  1
  Ni  Ni17  1  0.33046432  0.66467934  0.33328562  1
  Cr  Cr18  1  0.66555757  0.00022338  0.00157034  1
  Cr  Cr19  1  0.83585165  0.16776095  0.16412596  1
  Cr  Cr20  1  0.66715052  0.00212514  0.33538598  1
  Cr  Cr21  1  0.66550528  0.33419908  0.99922945  1
  Cr  Cr22  1  0.83503559  0.49930336  0.16415577  1
  Cr  Cr23  1  0.66482739  0.33254845  0.33314115  1
  Cr  Cr24  1  0.66503314  0.66528465  0.99937674  1
  Cr  Cr25  1  0.83168804  0.83257107  0.16900653  1
  Cr  Cr26  1  0.66704474  0.66643882  0.33354825  1
  Cr  Cr27  1  0.16938976  0.16866519  0.49944115  1
  Cr  Cr28  1  0.00037727  0.99824070  0.66522102  1
  Cr  Cr29  1  0.16577624  0.16553174  0.83355462  1
  Fe  Fe30  1  0.16984711  0.49955955  0.49829751  1
  Cr  Cr31  1  0.00116142  0.33438100  0.66581598  1
  Cr  Cr32  1  0.16674746  0.49827240  0.83182838  1
  Cr  Cr33  1  0.16859395  0.83196455  0.49943543  1
  Cr  Cr34  1  0.00085516  0.66731265  0.66383139  1
  Fe  Fe35  1  0.16549892  0.83195880  0.83220593  1
  Ni  Ni36  1  0.50021458  0.16912527  0.49968817  1
  Cr  Cr37  1  0.33305119  0.00060363  0.66783422  1
  Cr  Cr38  1  0.50113586  0.16691041  0.83140717  1
  Cr  Cr39  1  0.49923157  0.50057139  0.49885976  1
  Cr  Cr40  1  0.33799670  0.33360263  0.66469693  1
  Ni  Ni41  1  0.50048592  0.50026803  0.83225346  1
  Cr  Cr42  1  0.49902478  0.83352532  0.49856817  1
  Cr  Cr43  1  0.33221165  0.66455739  0.66860933  1
  Cr  Cr44  1  0.49886734  0.83167259  0.83289815  1
  Cr  Cr45  1  0.83298045  0.16839067  0.50159868  1
  Cr  Cr46  1  0.66580552  0.00288897  0.66314670  1
  Cr  Cr47  1  0.83530055  0.16776202  0.83404158  1
  Cr  Cr48  1  0.83386831  0.50016174  0.50126678  1
  Ni  Ni49  1  0.66580447  0.33383154  0.66773118  1
  Cr  Cr50  1  0.83294861  0.49883076  0.83432953  1
  Fe  Fe51  1  0.83175729  0.83400930  0.50022497  1
  Cr  Cr52  1  0.66647109  0.66421132  0.66705165  1
  Cr  Cr53  1  0.83220633  0.83373069  0.83055490  1
" 