198,Ni80Fe10Cr10_7,-206.099685378849, 186.790435640016,Ni80Fe10Cr10,"# generated using pymatgen
 data_Cr44(FeNi)5
_symmetry_space_group_name_H-M   'P 1'
_cell_length_a   7.46704761
_cell_length_b   7.46704761
_cell_length_c   10.56000000
_cell_angle_alpha   90.00000000
_cell_angle_beta   90.00000000
_cell_angle_gamma   90.00000000
_symmetry_Int_Tables_number   1
_chemical_formula_structural   Cr44(FeNi)5
_chemical_formula_sum   'Cr44 Fe5 Ni5'
_cell_volume   588.79180800
_cell_formula_units_Z   1
loop_
 _symmetry_equiv_pos_site_id
 _symmetry_equiv_pos_as_xyz
  1  'x, y, z'
loop_
 _atom_site_type_symbol
 _atom_site_label
 _atom_site_symmetry_multiplicity
 _atom_site_fract_x
 _atom_site_fract_y
 _atom_site_fract_z
 _atom_site_occupancy
  Cr  Cr0  1  0.00095139  0.99807897  0.99855659  1
  Cr  Cr1  1  0.16674982  0.16869690  0.16684555  1
  Cr  Cr2  1  0.99888012  0.99978904  0.33429162  1
  Cr  Cr3  1  0.99941804  0.33416595  0.00169436  1
  Cr  Cr4  1  0.16695705  0.49923656  0.16673044  1
  Cr  Cr5  1  0.99751892  0.33465364  0.33384749  1
  Cr  Cr6  1  0.99943417  0.66661567  0.99942946  1
  Cr  Cr7  1  0.16508079  0.83333858  0.16788898  1
  Cr  Cr8  1  0.99758243  0.66538075  0.33354081  1
  Cr  Cr9  1  0.33305463  0.99963563  0.99995589  1
  Cr  Cr10  1  0.49938949  0.16847967  0.16596502  1
  Cr  Cr11  1  0.33382150  0.00073080  0.33192661  1
  Ni  Ni12  1  0.33339276  0.33433423  0.00115323  1
  Cr  Cr13  1  0.50102665  0.50157751  0.16592072  1
  Fe  Fe14  1  0.33405780  0.33494960  0.33259844  1
  Cr  Cr15  1  0.33328156  0.66794651  0.99819652  1
  Cr  Cr16  1  0.50381322  0.83114236  0.16828426  1
  Cr  Cr17  1  0.33459916  0.66713990  0.33360646  1
  Cr  Cr18  1  0.66686108  0.99824995  0.99902135  1
  Cr  Cr19  1  0.83369245  0.16507268  0.16631331  1
  Cr  Cr20  1  0.66736769  0.99933869  0.33480581  1
  Cr  Cr21  1  0.66661846  0.33452993  0.00098781  1
  Fe  Fe22  1  0.83147592  0.50126484  0.16652800  1
  Cr  Cr23  1  0.66798593  0.33494028  0.33437252  1
  Ni  Ni24  1  0.66832088  0.66545636  0.00075014  1
  Cr  Cr25  1  0.83167332  0.83046236  0.16560276  1
  Ni  Ni26  1  0.66952953  0.66423681  0.33395932  1
  Cr  Cr27  1  0.16615490  0.16801694  0.49868912  1
  Cr  Cr28  1  0.99954382  0.99864515  0.66664916  1
  Cr  Cr29  1  0.16615902  0.16755006  0.83461186  1
  Cr  Cr30  1  0.16683186  0.49962163  0.50029188  1
  Cr  Cr31  1  0.99704091  0.33395394  0.66419433  1
  Cr  Cr32  1  0.16647184  0.49950020  0.83332060  1
  Cr  Cr33  1  0.16455840  0.83334347  0.49939604  1
  Cr  Cr34  1  0.99975462  0.66731531  0.66701347  1
  Ni  Ni35  1  0.16408469  0.83354429  0.83287445  1
  Cr  Cr36  1  0.49918020  0.16749909  0.49947960  1
  Cr  Cr37  1  0.33331071  0.99818125  0.66822478  1
  Cr  Cr38  1  0.50021529  0.16845033  0.83459099  1
  Cr  Cr39  1  0.49993714  0.50107301  0.49992043  1
  Cr  Cr40  1  0.33390961  0.33369968  0.66743375  1
  Cr  Cr41  1  0.50058235  0.49982764  0.83461628  1
  Cr  Cr42  1  0.50315778  0.83193695  0.49810840  1
  Cr  Cr43  1  0.33213538  0.66868445  0.66853199  1
  Cr  Cr44  1  0.50298462  0.83191030  0.83382547  1
  Fe  Fe45  1  0.83334811  0.16492124  0.49962990  1
  Cr  Cr46  1  0.66758685  0.00033901  0.66549669  1
  Cr  Cr47  1  0.83349544  0.16528974  0.83262195  1
  Fe  Fe48  1  0.83244950  0.50294517  0.49923183  1
  Cr  Cr49  1  0.66815539  0.33318327  0.66424059  1
  Cr  Cr50  1  0.83202885  0.50093913  0.83466922  1
  Ni  Ni51  1  0.83231856  0.83208379  0.49997523  1
  Cr  Cr52  1  0.66796003  0.66639409  0.66598403  1
  Fe  Fe53  1  0.83410938  0.83170669  0.83360448  1
" 