10,Ni80Fe10Cr10_13,-206.134633929113, 186.186153819439,Ni80Fe10Cr10,"# generated using pymatgen
 data_Cr44(FeNi)5
_symmetry_space_group_name_H-M   'P 1'
_cell_length_a   7.46704761
_cell_length_b   7.46704761
_cell_length_c   10.56000000
_cell_angle_alpha   90.00000000
_cell_angle_beta   90.00000000
_cell_angle_gamma   90.00000000
_symmetry_Int_Tables_number   1
_chemical_formula_structural   Cr44(FeNi)5
_chemical_formula_sum   'Cr44 Fe5 Ni5'
_cell_volume   588.79180800
_cell_formula_units_Z   1
loop_
 _symmetry_equiv_pos_site_id
 _symmetry_equiv_pos_as_xyz
  1  'x, y, z'
loop_
 _atom_site_type_symbol
 _atom_site_label
 _atom_site_symmetry_multiplicity
 _atom_site_fract_x
 _atom_site_fract_y
 _atom_site_fract_z
 _atom_site_occupancy
  Fe  Fe0  1  0.99935844  0.99954875  0.99813713  1
  Cr  Cr1  1  0.16625448  0.16740433  0.16633346  1
  Cr  Cr2  1  0.00025491  0.99983486  0.33470216  1
  Fe  Fe3  1  0.00083408  0.33226517  0.99889709  1
  Cr  Cr4  1  0.16816642  0.49955207  0.16761979  1
  Cr  Cr5  1  0.99962899  0.33345581  0.33273972  1
  Cr  Cr6  1  0.00079661  0.66709950  0.99886836  1
  Cr  Cr7  1  0.16553276  0.83322867  0.16690118  1
  Cr  Cr8  1  0.00075639  0.66667484  0.33405052  1
  Cr  Cr9  1  0.33187525  0.99801918  0.99877627  1
  Cr  Cr10  1  0.50023151  0.16623672  0.16694378  1
  Cr  Cr11  1  0.33302186  0.99855398  0.33322818  1
  Cr  Cr12  1  0.33358354  0.33333527  0.99932453  1
  Cr  Cr13  1  0.49844059  0.50031405  0.16816825  1
  Fe  Fe14  1  0.33386381  0.33563661  0.33328769  1
  Cr  Cr15  1  0.33247997  0.66877559  0.99913255  1
  Fe  Fe16  1  0.49840801  0.83384370  0.16635913  1
  Ni  Ni17  1  0.33420941  0.66759359  0.33145482  1
  Fe  Fe18  1  0.66609978  0.99898713  0.99898243  1
  Cr  Cr19  1  0.83361763  0.16497889  0.16279912  1
  Cr  Cr20  1  0.66572976  0.99933734  0.33318362  1
  Cr  Cr21  1  0.66839295  0.33327196  0.99692749  1
  Cr  Cr22  1  0.83459293  0.49953687  0.16525396  1
  Cr  Cr23  1  0.66751078  0.33413186  0.33548493  1
  Cr  Cr24  1  0.66506665  0.66693760  0.00157971  1
  Cr  Cr25  1  0.83175189  0.83516626  0.16544543  1
  Cr  Cr26  1  0.66565290  0.66676806  0.33144618  1
  Cr  Cr27  1  0.16805887  0.16799551  0.49766579  1
  Cr  Cr28  1  0.00141572  0.00012793  0.66710036  1
  Cr  Cr29  1  0.16488227  0.16543010  0.83554894  1
  Cr  Cr30  1  0.16868844  0.50191752  0.50014432  1
  Cr  Cr31  1  0.99905196  0.33317089  0.66838103  1
  Cr  Cr32  1  0.16701078  0.50248117  0.83246777  1
  Cr  Cr33  1  0.16708592  0.83083328  0.50242770  1
  Ni  Ni34  1  0.00368918  0.66750107  0.66760841  1
  Ni  Ni35  1  0.16471769  0.83278217  0.83126998  1
  Cr  Cr36  1  0.49884823  0.16724468  0.50001068  1
  Cr  Cr37  1  0.33171761  0.99846670  0.66786648  1
  Cr  Cr38  1  0.50220224  0.16582945  0.83270153  1
  Cr  Cr39  1  0.49714533  0.50124419  0.50128181  1
  Cr  Cr40  1  0.33277370  0.33257161  0.66695558  1
  Cr  Cr41  1  0.49847927  0.50091951  0.83032955  1
  Cr  Cr42  1  0.49885373  0.83152781  0.50089979  1
  Ni  Ni43  1  0.32941799  0.66838464  0.66931338  1
  Cr  Cr44  1  0.49859812  0.83244200  0.83276770  1
  Cr  Cr45  1  0.83343550  0.16542854  0.50044367  1
  Cr  Cr46  1  0.66725008  0.00170215  0.66727741  1
  Ni  Ni47  1  0.83485125  0.16433098  0.83781124  1
  Cr  Cr48  1  0.83503169  0.50217301  0.50179948  1
  Cr  Cr49  1  0.66871307  0.33210893  0.66763110  1
  Cr  Cr50  1  0.83500229  0.49984952  0.83292539  1
  Cr  Cr51  1  0.83448602  0.83239799  0.50179665  1
  Cr  Cr52  1  0.66748890  0.66602457  0.66682694  1
  Cr  Cr53  1  0.83499188  0.83462544  0.83271985  1
" 