458,Ni80Fe10Cr10_12,-206.377827367719, 191.378887306687,Ni80Fe10Cr10,"# generated using pymatgen
 data_Cr44(FeNi)5
_symmetry_space_group_name_H-M   'P 1'
_cell_length_a   7.46704761
_cell_length_b   7.46704761
_cell_length_c   10.56000000
_cell_angle_alpha   90.00000000
_cell_angle_beta   90.00000000
_cell_angle_gamma   90.00000000
_symmetry_Int_Tables_number   1
_chemical_formula_structural   Cr44(FeNi)5
_chemical_formula_sum   'Cr44 Fe5 Ni5'
_cell_volume   588.79180800
_cell_formula_units_Z   1
loop_
 _symmetry_equiv_pos_site_id
 _symmetry_equiv_pos_as_xyz
  1  'x, y, z'
loop_
 _atom_site_type_symbol
 _atom_site_label
 _atom_site_symmetry_multiplicity
 _atom_site_fract_x
 _atom_site_fract_y
 _atom_site_fract_z
 _atom_site_occupancy
  Fe  Fe0  1  0.00079852  0.00042657  0.00058916  1
  Cr  Cr1  1  0.16650030  0.16551336  0.16450032  1
  Cr  Cr2  1  0.00053571  0.99818315  0.33253626  1
  Ni  Ni3  1  0.00036010  0.33458098  0.00012540  1
  Cr  Cr4  1  0.16716190  0.49644225  0.16562667  1
  Cr  Cr5  1  0.99995642  0.33468288  0.33298942  1
  Cr  Cr6  1  0.99984844  0.66425405  0.00078357  1
  Fe  Fe7  1  0.16382402  0.83266479  0.16450487  1
  Cr  Cr8  1  0.99956449  0.66570201  0.33224805  1
  Cr  Cr9  1  0.33428286  0.00082175  0.00107918  1
  Fe  Fe10  1  0.50167410  0.16744896  0.16522777  1
  Cr  Cr11  1  0.33449538  0.00071151  0.33161748  1
  Cr  Cr12  1  0.33505718  0.33253465  0.99751985  1
  Cr  Cr13  1  0.50186184  0.50084113  0.16633173  1
  Cr  Cr14  1  0.33662903  0.33043101  0.33327449  1
  Cr  Cr15  1  0.33126585  0.66547024  0.99821699  1
  Cr  Cr16  1  0.49831048  0.83278147  0.16557222  1
  Cr  Cr17  1  0.33001999  0.66759493  0.33063897  1
  Cr  Cr18  1  0.66407639  0.00316589  0.99744385  1
  Cr  Cr19  1  0.83650013  0.16821448  0.16305053  1
  Cr  Cr20  1  0.66453120  0.00342567  0.33478409  1
  Cr  Cr21  1  0.66671137  0.33359296  0.00007345  1
  Ni  Ni22  1  0.83461462  0.49883088  0.16598988  1
  Cr  Cr23  1  0.66787820  0.33201367  0.33101802  1
  Cr  Cr24  1  0.66633266  0.66466466  0.99839156  1
  Cr  Cr25  1  0.83089101  0.83413085  0.16433199  1
  Cr  Cr26  1  0.66843218  0.66629026  0.33200380  1
  Cr  Cr27  1  0.16836540  0.16829963  0.50137653  1
  Cr  Cr28  1  0.00067157  0.99941974  0.66708653  1
  Cr  Cr29  1  0.16580472  0.16905881  0.83444100  1
  Cr  Cr30  1  0.16976748  0.49797072  0.50160891  1
  Cr  Cr31  1  0.00202174  0.33583770  0.66764186  1
  Fe  Fe32  1  0.16696628  0.49796718  0.83434406  1
  Cr  Cr33  1  0.16797167  0.83409975  0.49889815  1
  Cr  Cr34  1  0.00090698  0.66602619  0.66697851  1
  Cr  Cr35  1  0.16590013  0.83577474  0.83558356  1
  Fe  Fe36  1  0.49957298  0.16841245  0.50194193  1
  Cr  Cr37  1  0.33513114  0.00353393  0.66681100  1
  Ni  Ni38  1  0.49787198  0.17003092  0.83234436  1
  Cr  Cr39  1  0.49879364  0.50004037  0.50066270  1
  Ni  Ni40  1  0.33479535  0.33361140  0.67002099  1
  Ni  Ni41  1  0.49639165  0.49705927  0.83265156  1
  Cr  Cr42  1  0.49970294  0.83126101  0.50133823  1
  Cr  Cr43  1  0.33093189  0.66437109  0.67088910  1
  Cr  Cr44  1  0.49988869  0.83150601  0.83290269  1
  Cr  Cr45  1  0.83520241  0.16714447  0.50124387  1
  Cr  Cr46  1  0.66526433  0.00267125  0.66784544  1
  Cr  Cr47  1  0.83615248  0.16695540  0.83594634  1
  Cr  Cr48  1  0.83180146  0.49954793  0.49875881  1
  Cr  Cr49  1  0.66392474  0.33183827  0.66832124  1
  Cr  Cr50  1  0.83223276  0.49838757  0.83466202  1
  Cr  Cr51  1  0.83143936  0.83379477  0.50211518  1
  Cr  Cr52  1  0.66703366  0.66495444  0.66941024  1
  Cr  Cr53  1  0.83337818  0.83501000  0.83370560  1
" 