192,NiCr70_1,-62.205474686393, 137.914769259433,NiCr70,"# generated using pymatgen
 data_Cr11Ni5
_symmetry_space_group_name_H-M   'P 1'
_cell_length_a   4.97803174
_cell_length_b   4.97803174
_cell_length_c   7.04000000
_cell_angle_alpha   90.00000000
_cell_angle_beta   90.00000000
_cell_angle_gamma   90.00000000
_symmetry_Int_Tables_number   1
_chemical_formula_structural   Cr11Ni5
_chemical_formula_sum   'Cr11 Ni5'
_cell_volume   174.45683200
_cell_formula_units_Z   1
loop_
 _symmetry_equiv_pos_site_id
 _symmetry_equiv_pos_as_xyz
  1  'x, y, z'
loop_
 _atom_site_type_symbol
 _atom_site_label
 _atom_site_symmetry_multiplicity
 _atom_site_fract_x
 _atom_site_fract_y
 _atom_site_fract_z
 _atom_site_occupancy
  Cr  Cr0  1  0.00000000  0.00293338  0.00000000  1
  Cr  Cr1  1  0.24855621  0.25151482  0.25111666  1
  Cr  Cr2  1  0.00000000  0.00338402  0.50000000  1
  Ni  Ni3  1  0.24834945  0.25173923  0.74859584  1
  Ni  Ni4  1  0.00000000  0.49685336  0.00000000  1
  Cr  Cr5  1  0.24861070  0.74865319  0.25181584  1
  Ni  Ni6  1  1.00000000  0.49683867  0.50000000  1
  Cr  Cr7  1  0.24863591  0.74868835  0.74869265  1
  Cr  Cr8  1  0.50000000  0.00181381  0.00000000  1
  Ni  Ni9  1  0.75165055  0.25173923  0.25140416  1
  Ni  Ni10  1  0.50000000  0.00358219  0.50000000  1
  Cr  Cr11  1  0.75144379  0.25151482  0.74888334  1
  Cr  Cr12  1  0.50000000  0.49642526  0.00000000  1
  Cr  Cr13  1  0.75136409  0.74868835  0.25130735  1
  Cr  Cr14  1  0.50000000  0.49697815  0.50000000  1
  Cr  Cr15  1  0.75138930  0.74865319  0.74818416  1
" 