238,NiCr20_3,-68.6612887065571, 147.902806052122,NiCr20,"# generated using pymatgen
 data_Cr3Ni13
_symmetry_space_group_name_H-M   'P 1'
_cell_length_a   4.97803174
_cell_length_b   4.97803174
_cell_length_c   7.04000000
_cell_angle_alpha   90.00000000
_cell_angle_beta   90.00000000
_cell_angle_gamma   90.00000000
_symmetry_Int_Tables_number   1
_chemical_formula_structural   Cr3Ni13
_chemical_formula_sum   'Cr3 Ni13'
_cell_volume   174.45683200
_cell_formula_units_Z   1
loop_
 _symmetry_equiv_pos_site_id
 _symmetry_equiv_pos_as_xyz
  1  'x, y, z'
loop_
 _atom_site_type_symbol
 _atom_site_label
 _atom_site_symmetry_multiplicity
 _atom_site_fract_x
 _atom_site_fract_y
 _atom_site_fract_z
 _atom_site_occupancy
  Ni  Ni0  1  0.00164448  0.00164448  0.99835156  1
  Ni  Ni1  1  0.25000000  0.25000000  0.24730678  1
  Ni  Ni2  1  0.00109037  0.00109037  0.50131119  1
  Ni  Ni3  1  0.25000000  0.25000000  0.75237706  1
  Ni  Ni4  1  0.00132225  0.49867775  0.99878051  1
  Ni  Ni5  1  0.25000000  0.75000000  0.24733739  1
  Cr  Cr6  1  0.00191982  0.49808018  0.50160908  1
  Ni  Ni7  1  0.25000000  0.75000000  0.75298365  1
  Ni  Ni8  1  0.49867775  0.00132225  0.99878051  1
  Ni  Ni9  1  0.75000000  0.25000000  0.24733739  1
  Cr  Cr10  1  0.49808018  0.00191982  0.50160908  1
  Ni  Ni11  1  0.75000000  0.25000000  0.75298365  1
  Ni  Ni12  1  0.49835552  0.49835552  0.99835156  1
  Cr  Cr13  1  0.75000000  0.75000000  0.24679807  1
  Ni  Ni14  1  0.49890963  0.49890963  0.50131119  1
  Ni  Ni15  1  0.75000000  0.75000000  0.75277132  1
" 