418,NiCr30_5,-67.9311266656428, 145.772045416947,NiCr30,"# generated using pymatgen
 data_CrNi3
_symmetry_space_group_name_H-M   'P 1'
_cell_length_a   4.97803174
_cell_length_b   4.97803174
_cell_length_c   7.04000000
_cell_angle_alpha   90.00000000
_cell_angle_beta   90.00000000
_cell_angle_gamma   90.00000000
_symmetry_Int_Tables_number   1
_chemical_formula_structural   CrNi3
_chemical_formula_sum   'Cr4 Ni12'
_cell_volume   174.45683200
_cell_formula_units_Z   4
loop_
 _symmetry_equiv_pos_site_id
 _symmetry_equiv_pos_as_xyz
  1  'x, y, z'
loop_
 _atom_site_type_symbol
 _atom_site_label
 _atom_site_symmetry_multiplicity
 _atom_site_fract_x
 _atom_site_fract_y
 _atom_site_fract_z
 _atom_site_occupancy
  Ni  Ni0  1  0.99548652  0.00141663  0.00125008  1
  Ni  Ni1  1  0.24846010  0.24848423  0.25157318  1
  Ni  Ni2  1  0.99567641  0.00144702  0.49893249  1
  Cr  Cr3  1  0.24854585  0.24866617  0.74864784  1
  Ni  Ni4  1  0.99585663  0.49868146  0.00132006  1
  Cr  Cr5  1  0.24835853  0.75160945  0.25184166  1
  Ni  Ni6  1  0.99509318  0.49831921  0.49850194  1
  Cr  Cr7  1  0.24862224  0.75127696  0.74792440  1
  Ni  Ni8  1  0.50425128  0.00131427  0.00132091  1
  Ni  Ni9  1  0.75149878  0.24839606  0.25107918  1
  Ni  Ni10  1  0.50505043  0.00169018  0.49850159  1
  Ni  Ni11  1  0.75128206  0.24872399  0.74904005  1
  Cr  Cr12  1  0.50435521  0.49853113  0.00164147  1
  Ni  Ni13  1  0.75141719  0.75147634  0.25130497  1
  Ni  Ni14  1  0.50457387  0.49843347  0.49852525  1
  Ni  Ni15  1  0.75147172  0.75153344  0.74859493  1
" 