42,NiCr80_10,-61.6853767856597, 153.070332089446,NiCr80,"# generated using pymatgen
 data_Cr3Ni
_symmetry_space_group_name_H-M   'P 1'
_cell_length_a   4.97803174
_cell_length_b   4.97803174
_cell_length_c   7.04000000
_cell_angle_alpha   90.00000000
_cell_angle_beta   90.00000000
_cell_angle_gamma   90.00000000
_symmetry_Int_Tables_number   1
_chemical_formula_structural   Cr3Ni
_chemical_formula_sum   'Cr12 Ni4'
_cell_volume   174.45683200
_cell_formula_units_Z   4
loop_
 _symmetry_equiv_pos_site_id
 _symmetry_equiv_pos_as_xyz
  1  'x, y, z'
loop_
 _atom_site_type_symbol
 _atom_site_label
 _atom_site_symmetry_multiplicity
 _atom_site_fract_x
 _atom_site_fract_y
 _atom_site_fract_z
 _atom_site_occupancy
  Cr  Cr0  1  0.99863935  0.99528141  0.99856362  1
  Cr  Cr1  1  0.25120372  0.24885092  0.24853680  1
  Cr  Cr2  1  0.99841266  0.99524526  0.50173586  1
  Cr  Cr3  1  0.25114558  0.24888344  0.75125874  1
  Cr  Cr4  1  0.99881574  0.50368067  0.99851160  1
  Cr  Cr5  1  0.25151433  0.75163809  0.24865643  1
  Cr  Cr6  1  0.99876392  0.50350497  0.50121604  1
  Ni  Ni7  1  0.25157359  0.75189078  0.75142575  1
  Ni  Ni8  1  0.50162558  0.99517237  0.99829651  1
  Cr  Cr9  1  0.74849667  0.24864172  0.24855380  1
  Cr  Cr10  1  0.50136118  0.99601204  0.50125444  1
  Cr  Cr11  1  0.74854031  0.24862816  0.75169057  1
  Cr  Cr12  1  0.50149356  0.50447952  0.99854301  1
  Ni  Ni13  1  0.74834772  0.75174042  0.24854725  1
  Cr  Cr14  1  0.50162065  0.50461520  0.50176107  1
  Ni  Ni15  1  0.74844543  0.75173501  0.75144849  1
" 