315,NiCr40_12,-66.1725650847602, 130.196835608661,NiCr40,"# generated using pymatgen
 data_Cr3Ni5
_symmetry_space_group_name_H-M   'P 1'
_cell_length_a   4.97803174
_cell_length_b   4.97803174
_cell_length_c   7.04000000
_cell_angle_alpha   90.00000000
_cell_angle_beta   90.00000000
_cell_angle_gamma   90.00000000
_symmetry_Int_Tables_number   1
_chemical_formula_structural   Cr3Ni5
_chemical_formula_sum   'Cr6 Ni10'
_cell_volume   174.45683200
_cell_formula_units_Z   2
loop_
 _symmetry_equiv_pos_site_id
 _symmetry_equiv_pos_as_xyz
  1  'x, y, z'
loop_
 _atom_site_type_symbol
 _atom_site_label
 _atom_site_symmetry_multiplicity
 _atom_site_fract_x
 _atom_site_fract_y
 _atom_site_fract_z
 _atom_site_occupancy
  Ni  Ni0  1  0.99674053  0.00265147  0.00000000  1
  Ni  Ni1  1  0.24993665  0.24664940  0.25003892  1
  Ni  Ni2  1  0.99828424  0.00223548  0.50000000  1
  Ni  Ni3  1  0.24993665  0.24664940  0.74996108  1
  Cr  Cr4  1  0.99662586  0.49680320  0.00000000  1
  Cr  Cr5  1  0.25004112  0.75266642  0.25054259  1
  Cr  Cr6  1  0.99592261  0.49570976  0.50000000  1
  Cr  Cr7  1  0.25004112  0.75266642  0.74945741  1
  Ni  Ni8  1  0.50241283  0.00262668  0.00000000  1
  Ni  Ni9  1  0.75003000  0.24727519  0.24957541  1
  Cr  Cr10  1  0.50522139  0.00491609  0.50000000  1
  Ni  Ni11  1  0.75003000  0.24727519  0.75042459  1
  Cr  Cr12  1  0.50197534  0.49738889  0.00000000  1
  Ni  Ni13  1  0.75007459  0.75327780  0.24999077  1
  Ni  Ni14  1  0.50265246  0.49793080  0.50000000  1
  Ni  Ni15  1  0.75007459  0.75327780  0.75000923  1
" 