235,NiCr20_13,-68.7342858532022, 154.892795629638,NiCr20,"# generated using pymatgen
 data_Cr3Ni13
_symmetry_space_group_name_H-M   'P 1'
_cell_length_a   4.97803174
_cell_length_b   4.97803174
_cell_length_c   7.04000000
_cell_angle_alpha   90.00000000
_cell_angle_beta   90.00000000
_cell_angle_gamma   90.00000000
_symmetry_Int_Tables_number   1
_chemical_formula_structural   Cr3Ni13
_chemical_formula_sum   'Cr3 Ni13'
_cell_volume   174.45683200
_cell_formula_units_Z   1
loop_
 _symmetry_equiv_pos_site_id
 _symmetry_equiv_pos_as_xyz
  1  'x, y, z'
loop_
 _atom_site_type_symbol
 _atom_site_label
 _atom_site_symmetry_multiplicity
 _atom_site_fract_x
 _atom_site_fract_y
 _atom_site_fract_z
 _atom_site_occupancy
  Ni  Ni0  1  0.00128695  0.00125503  0.99883766  1
  Ni  Ni1  1  0.25000000  0.24695574  0.25000000  1
  Ni  Ni2  1  0.00158148  0.00154897  0.50144058  1
  Ni  Ni3  1  0.25000000  0.24724926  0.75000000  1
  Cr  Cr4  1  0.00162858  0.49836053  0.99856856  1
  Ni  Ni5  1  0.25000000  0.75287214  0.25000000  1
  Ni  Ni6  1  0.00135270  0.49860400  0.50136515  1
  Ni  Ni7  1  0.25000000  0.75313365  0.75000000  1
  Ni  Ni8  1  0.49841852  0.00154897  0.99855942  1
  Ni  Ni9  1  0.75000000  0.24726430  0.25000000  1
  Ni  Ni10  1  0.49871305  0.00125503  0.50116234  1
  Ni  Ni11  1  0.75000000  0.24689195  0.75000000  1
  Ni  Ni12  1  0.49864730  0.49860400  0.99863485  1
  Cr  Cr13  1  0.75000000  0.75318872  0.25000000  1
  Cr  Cr14  1  0.49837142  0.49836053  0.50143144  1
  Ni  Ni15  1  0.75000000  0.75290719  0.75000000  1
" 