195,NiCr50_11,-64.4696302744355, 115.164777562778,NiCr50,"# generated using pymatgen
 data_CrNi
_symmetry_space_group_name_H-M   'P 1'
_cell_length_a   4.97803174
_cell_length_b   4.97803174
_cell_length_c   7.04000000
_cell_angle_alpha   90.00000000
_cell_angle_beta   90.00000000
_cell_angle_gamma   90.00000000
_symmetry_Int_Tables_number   1
_chemical_formula_structural   CrNi
_chemical_formula_sum   'Cr8 Ni8'
_cell_volume   174.45683200
_cell_formula_units_Z   8
loop_
 _symmetry_equiv_pos_site_id
 _symmetry_equiv_pos_as_xyz
  1  'x, y, z'
loop_
 _atom_site_type_symbol
 _atom_site_label
 _atom_site_symmetry_multiplicity
 _atom_site_fract_x
 _atom_site_fract_y
 _atom_site_fract_z
 _atom_site_occupancy
  Ni  Ni0  1  0.00000000  0.00000000  0.99678358  1
  Cr  Cr1  1  0.24621983  0.25378017  0.25000000  1
  Ni  Ni2  1  0.00000000  0.00000000  0.50321642  1
  Cr  Cr3  1  0.24474125  0.25525875  0.75000000  1
  Ni  Ni4  1  0.00000000  0.50000000  0.99868525  1
  Cr  Cr5  1  0.24921645  0.74921645  0.25000000  1
  Ni  Ni6  1  0.00000000  0.50000000  0.50131475  1
  Ni  Ni7  1  0.24724452  0.74724452  0.75000000  1
  Cr  Cr8  1  0.50000000  1.00000000  0.99520823  1
  Cr  Cr9  1  0.75078355  0.25078355  0.25000000  1
  Cr  Cr10  1  0.50000000  0.00000000  0.50479177  1
  Ni  Ni11  1  0.75275548  0.25275548  0.75000000  1
  Ni  Ni12  1  0.50000000  0.50000000  0.99678358  1
  Cr  Cr13  1  0.75378017  0.74621983  0.25000000  1
  Ni  Ni14  1  0.50000000  0.50000000  0.50321642  1
  Cr  Cr15  1  0.75525875  0.74474125  0.75000000  1
" 