382,NiCr40_7,-66.3927963509409, 130.232635271613,NiCr40,"# generated using pymatgen
 data_Cr3Ni5
_symmetry_space_group_name_H-M   'P 1'
_cell_length_a   4.97803174
_cell_length_b   4.97803174
_cell_length_c   7.04000000
_cell_angle_alpha   90.00000000
_cell_angle_beta   90.00000000
_cell_angle_gamma   90.00000000
_symmetry_Int_Tables_number   1
_chemical_formula_structural   Cr3Ni5
_chemical_formula_sum   'Cr6 Ni10'
_cell_volume   174.45683200
_cell_formula_units_Z   2
loop_
 _symmetry_equiv_pos_site_id
 _symmetry_equiv_pos_as_xyz
  1  'x, y, z'
loop_
 _atom_site_type_symbol
 _atom_site_label
 _atom_site_symmetry_multiplicity
 _atom_site_fract_x
 _atom_site_fract_y
 _atom_site_fract_z
 _atom_site_occupancy
  Cr  Cr0  1  0.99859165  0.00155026  0.99544409  1
  Cr  Cr1  1  0.25140835  0.24844974  0.25455591  1
  Ni  Ni2  1  0.99837507  0.00154768  0.50418828  1
  Ni  Ni3  1  0.25162493  0.24845232  0.74581172  1
  Cr  Cr4  1  0.99909314  0.49909314  0.99524983  1
  Cr  Cr5  1  0.25090686  0.75090686  0.25475017  1
  Ni  Ni6  1  0.99805667  0.49805667  0.50553646  1
  Ni  Ni7  1  0.25194333  0.75194333  0.74446354  1
  Ni  Ni8  1  0.50132259  0.00132259  0.99593898  1
  Ni  Ni9  1  0.74867741  0.24867741  0.25406102  1
  Ni  Ni10  1  0.50173357  0.00173357  0.50423243  1
  Ni  Ni11  1  0.74826643  0.24826643  0.74576757  1
  Cr  Cr12  1  0.50155026  0.49859165  0.99544409  1
  Cr  Cr13  1  0.74844974  0.75140835  0.25455591  1
  Ni  Ni14  1  0.50154768  0.49837507  0.50418828  1
  Ni  Ni15  1  0.74845232  0.75162493  0.74581172  1
" 