234,NiCr30_6,-67.9645343484883, 148.3563812655,NiCr30,"# generated using pymatgen
 data_CrNi3
_symmetry_space_group_name_H-M   'P 1'
_cell_length_a   4.97803174
_cell_length_b   4.97803174
_cell_length_c   7.04000000
_cell_angle_alpha   90.00000000
_cell_angle_beta   90.00000000
_cell_angle_gamma   90.00000000
_symmetry_Int_Tables_number   1
_chemical_formula_structural   CrNi3
_chemical_formula_sum   'Cr4 Ni12'
_cell_volume   174.45683200
_cell_formula_units_Z   4
loop_
 _symmetry_equiv_pos_site_id
 _symmetry_equiv_pos_as_xyz
  1  'x, y, z'
loop_
 _atom_site_type_symbol
 _atom_site_label
 _atom_site_symmetry_multiplicity
 _atom_site_fract_x
 _atom_site_fract_y
 _atom_site_fract_z
 _atom_site_occupancy
  Cr  Cr0  1  0.00000000  0.99698546  0.99720223  1
  Cr  Cr1  1  0.25000000  0.25291340  0.25000000  1
  Ni  Ni2  1  0.00000000  0.99706017  0.50284209  1
  Ni  Ni3  1  0.25000000  0.25309847  0.75000000  1
  Ni  Ni4  1  0.00000000  0.50271096  0.99754449  1
  Ni  Ni5  1  0.25000000  0.74707556  0.25000000  1
  Ni  Ni6  1  0.00000000  0.50305938  0.50295315  1
  Ni  Ni7  1  0.25000000  0.74709660  0.75000000  1
  Ni  Ni8  1  0.50000000  0.99706017  0.99715791  1
  Cr  Cr9  1  0.75000000  0.25291340  0.25000000  1
  Cr  Cr10  1  0.50000000  0.99698546  0.50279777  1
  Ni  Ni11  1  0.75000000  0.25309847  0.75000000  1
  Ni  Ni12  1  0.50000000  0.50305938  0.99704685  1
  Ni  Ni13  1  0.75000000  0.74707556  0.25000000  1
  Ni  Ni14  1  0.50000000  0.50271096  0.50245551  1
  Ni  Ni15  1  0.75000000  0.74709660  0.75000000  1
" 