260,NiCr40_0,-66.1930539266894, 127.330233044046,NiCr40,"# generated using pymatgen
 data_Cr3Ni5
_symmetry_space_group_name_H-M   'P 1'
_cell_length_a   4.97803174
_cell_length_b   4.97803174
_cell_length_c   7.04000000
_cell_angle_alpha   90.00000000
_cell_angle_beta   90.00000000
_cell_angle_gamma   90.00000000
_symmetry_Int_Tables_number   1
_chemical_formula_structural   Cr3Ni5
_chemical_formula_sum   'Cr6 Ni10'
_cell_volume   174.45683200
_cell_formula_units_Z   2
loop_
 _symmetry_equiv_pos_site_id
 _symmetry_equiv_pos_as_xyz
  1  'x, y, z'
loop_
 _atom_site_type_symbol
 _atom_site_label
 _atom_site_symmetry_multiplicity
 _atom_site_fract_x
 _atom_site_fract_y
 _atom_site_fract_z
 _atom_site_occupancy
  Ni  Ni0  1  0.00000000  0.00000000  0.00258471  1
  Ni  Ni1  1  0.24646580  0.24646580  0.25000000  1
  Ni  Ni2  1  0.00000000  0.00000000  0.49741529  1
  Ni  Ni3  1  0.24726773  0.24726773  0.75000000  1
  Ni  Ni4  1  0.00000000  0.50000000  0.00315994  1
  Ni  Ni5  1  0.24726046  0.75273954  0.25000000  1
  Cr  Cr6  1  0.00000000  0.50000000  0.49674563  1
  Cr  Cr7  1  0.24669559  0.75330441  0.75000000  1
  Cr  Cr8  1  0.50000000  0.00000000  0.00325437  1
  Ni  Ni9  1  0.75273954  0.24726046  0.25000000  1
  Ni  Ni10  1  0.50000000  0.00000000  0.49684006  1
  Cr  Cr11  1  0.75330441  0.24669559  0.75000000  1
  Cr  Cr12  1  0.50000000  0.50000000  0.00321531  1
  Ni  Ni13  1  0.75353420  0.75353420  0.25000000  1
  Cr  Cr14  1  0.50000000  0.50000000  0.49678469  1
  Ni  Ni15  1  0.75273227  0.75273227  0.75000000  1
" 