290,NiCr10_13,-70.3334722215297, 168.756022240661,NiCr10,"# generated using pymatgen
 data_CrNi15
_symmetry_space_group_name_H-M   'P 1'
_cell_length_a   4.97803174
_cell_length_b   4.97803174
_cell_length_c   7.04000000
_cell_angle_alpha   90.00000000
_cell_angle_beta   90.00000000
_cell_angle_gamma   90.00000000
_symmetry_Int_Tables_number   1
_chemical_formula_structural   CrNi15
_chemical_formula_sum   'Cr1 Ni15'
_cell_volume   174.45683200
_cell_formula_units_Z   1
loop_
 _symmetry_equiv_pos_site_id
 _symmetry_equiv_pos_as_xyz
  1  'x, y, z'
loop_
 _atom_site_type_symbol
 _atom_site_label
 _atom_site_symmetry_multiplicity
 _atom_site_fract_x
 _atom_site_fract_y
 _atom_site_fract_z
 _atom_site_occupancy
  Ni  Ni0  1  0.00143055  0.99856945  0.00130453  1
  Ni  Ni1  1  0.25000000  0.25000000  0.25000000  1
  Ni  Ni2  1  0.00143055  0.99856945  0.49869547  1
  Ni  Ni3  1  0.25000000  0.25000000  0.75000000  1
  Ni  Ni4  1  0.00143055  0.50143055  0.00130453  1
  Ni  Ni5  1  0.25000000  0.75000000  0.25000000  1
  Ni  Ni6  1  0.00143055  0.50143055  0.49869547  1
  Ni  Ni7  1  0.25000000  0.75000000  0.75000000  1
  Ni  Ni8  1  0.49856945  0.99856945  0.00130453  1
  Ni  Ni9  1  0.75000000  0.25000000  0.25000000  1
  Ni  Ni10  1  0.49856945  0.99856945  0.49869547  1
  Cr  Cr11  1  0.75000000  0.25000000  0.75000000  1
  Ni  Ni12  1  0.49856945  0.50143055  0.00130453  1
  Ni  Ni13  1  0.75000000  0.75000000  0.25000000  1
  Ni  Ni14  1  0.49856945  0.50143055  0.49869547  1
  Ni  Ni15  1  0.75000000  0.75000000  0.75000000  1
" 