374,NiCr20_2,-68.7028831321078, 149.20893701575,NiCr20,"# generated using pymatgen
 data_Cr3Ni13
_symmetry_space_group_name_H-M   'P 1'
_cell_length_a   4.97803174
_cell_length_b   4.97803174
_cell_length_c   7.04000000
_cell_angle_alpha   90.00000000
_cell_angle_beta   90.00000000
_cell_angle_gamma   90.00000000
_symmetry_Int_Tables_number   1
_chemical_formula_structural   Cr3Ni13
_chemical_formula_sum   'Cr3 Ni13'
_cell_volume   174.45683200
_cell_formula_units_Z   1
loop_
 _symmetry_equiv_pos_site_id
 _symmetry_equiv_pos_as_xyz
  1  'x, y, z'
loop_
 _atom_site_type_symbol
 _atom_site_label
 _atom_site_symmetry_multiplicity
 _atom_site_fract_x
 _atom_site_fract_y
 _atom_site_fract_z
 _atom_site_occupancy
  Cr  Cr0  1  0.99867184  0.00143451  0.00164042  1
  Ni  Ni1  1  0.25000000  0.25315935  0.25297952  1
  Ni  Ni2  1  0.99843473  0.00157205  0.49841788  1
  Ni  Ni3  1  0.25000000  0.25270617  0.74734585  1
  Ni  Ni4  1  0.99862517  0.49867522  0.00127165  1
  Ni  Ni5  1  0.25000000  0.74701597  0.25286741  1
  Ni  Ni6  1  0.99848312  0.49851537  0.49872320  1
  Cr  Cr7  1  0.25000000  0.74699281  0.74671017  1
  Cr  Cr8  1  0.50132816  0.00143451  0.00164042  1
  Ni  Ni9  1  0.75000000  0.25279115  0.25225145  1
  Ni  Ni10  1  0.50156527  0.00157205  0.49841788  1
  Ni  Ni11  1  0.75000000  0.25293052  0.74741514  1
  Ni  Ni12  1  0.50137483  0.49867522  0.00127165  1
  Ni  Ni13  1  0.75000000  0.74679646  0.25297135  1
  Ni  Ni14  1  0.50151688  0.49851537  0.49872320  1
  Ni  Ni15  1  0.75000000  0.74721327  0.74735280  1
" 