170,NiCr20_9,-68.7028831321079, 149.208937020944,NiCr20,"# generated using pymatgen
 data_Cr3Ni13
_symmetry_space_group_name_H-M   'P 1'
_cell_length_a   4.97803174
_cell_length_b   4.97803174
_cell_length_c   7.04000000
_cell_angle_alpha   90.00000000
_cell_angle_beta   90.00000000
_cell_angle_gamma   90.00000000
_symmetry_Int_Tables_number   1
_chemical_formula_structural   Cr3Ni13
_chemical_formula_sum   'Cr3 Ni13'
_cell_volume   174.45683200
_cell_formula_units_Z   1
loop_
 _symmetry_equiv_pos_site_id
 _symmetry_equiv_pos_as_xyz
  1  'x, y, z'
loop_
 _atom_site_type_symbol
 _atom_site_label
 _atom_site_symmetry_multiplicity
 _atom_site_fract_x
 _atom_site_fract_y
 _atom_site_fract_z
 _atom_site_occupancy
  Ni  Ni0  1  0.99720885  0.00000000  0.99774855  1
  Cr  Cr1  1  0.24856549  0.24867184  0.24835958  1
  Ni  Ni2  1  0.99706948  0.00000000  0.50258486  1
  Ni  Ni3  1  0.24842795  0.24843473  0.75158212  1
  Ni  Ni4  1  0.99684065  0.50000000  0.99702048  1
  Cr  Cr5  1  0.24856549  0.75132816  0.24835958  1
  Ni  Ni6  1  0.99729383  0.50000000  0.50265415  1
  Ni  Ni7  1  0.24842795  0.75156527  0.75158212  1
  Ni  Ni8  1  0.50320354  0.00000000  0.99702865  1
  Ni  Ni9  1  0.75132478  0.24862517  0.24872835  1
  Ni  Ni10  1  0.50278673  0.00000000  0.50264720  1
  Ni  Ni11  1  0.75148463  0.24848312  0.75127680  1
  Ni  Ni12  1  0.50298403  0.50000000  0.99713259  1
  Ni  Ni13  1  0.75132478  0.75137483  0.24872835  1
  Cr  Cr14  1  0.50300719  0.50000000  0.50328983  1
  Ni  Ni15  1  0.75148463  0.75151688  0.75127680  1
" 