369,NiCr30_7,-67.9459303010249, 149.186426823561,NiCr30,"# generated using pymatgen
 data_CrNi3
_symmetry_space_group_name_H-M   'P 1'
_cell_length_a   4.97803174
_cell_length_b   4.97803174
_cell_length_c   7.04000000
_cell_angle_alpha   90.00000000
_cell_angle_beta   90.00000000
_cell_angle_gamma   90.00000000
_symmetry_Int_Tables_number   1
_chemical_formula_structural   CrNi3
_chemical_formula_sum   'Cr4 Ni12'
_cell_volume   174.45683200
_cell_formula_units_Z   4
loop_
 _symmetry_equiv_pos_site_id
 _symmetry_equiv_pos_as_xyz
  1  'x, y, z'
loop_
 _atom_site_type_symbol
 _atom_site_label
 _atom_site_symmetry_multiplicity
 _atom_site_fract_x
 _atom_site_fract_y
 _atom_site_fract_z
 _atom_site_occupancy
  Ni  Ni0  1  0.99702843  0.00000000  0.00000000  1
  Cr  Cr1  1  0.24694025  0.24691213  0.25000000  1
  Ni  Ni2  1  0.99702843  0.00000000  0.50000000  1
  Ni  Ni3  1  0.24691782  0.24703693  0.75000000  1
  Ni  Ni4  1  0.99694707  0.50000000  0.00000000  1
  Ni  Ni5  1  0.24691782  0.75296307  0.25000000  1
  Ni  Ni6  1  0.99694707  0.50000000  0.50000000  1
  Cr  Cr7  1  0.24694025  0.75308787  0.75000000  1
  Ni  Ni8  1  0.50318618  0.00000000  0.00000000  1
  Ni  Ni9  1  0.75270241  0.24716593  0.25000000  1
  Ni  Ni10  1  0.50318618  0.00000000  0.50000000  1
  Ni  Ni11  1  0.75315286  0.24683166  0.75000000  1
  Cr  Cr12  1  0.50312498  0.50000000  0.00000000  1
  Ni  Ni13  1  0.75315286  0.75316834  0.25000000  1
  Cr  Cr14  1  0.50312498  0.50000000  0.50000000  1
  Ni  Ni15  1  0.75270241  0.75283407  0.75000000  1
" 