329,NiCr70_5,-62.2967249432514, 145.097324941117,NiCr70,"# generated using pymatgen
 data_Cr11Ni5
_symmetry_space_group_name_H-M   'P 1'
_cell_length_a   4.97803174
_cell_length_b   4.97803174
_cell_length_c   7.04000000
_cell_angle_alpha   90.00000000
_cell_angle_beta   90.00000000
_cell_angle_gamma   90.00000000
_symmetry_Int_Tables_number   1
_chemical_formula_structural   Cr11Ni5
_chemical_formula_sum   'Cr11 Ni5'
_cell_volume   174.45683200
_cell_formula_units_Z   1
loop_
 _symmetry_equiv_pos_site_id
 _symmetry_equiv_pos_as_xyz
  1  'x, y, z'
loop_
 _atom_site_type_symbol
 _atom_site_label
 _atom_site_symmetry_multiplicity
 _atom_site_fract_x
 _atom_site_fract_y
 _atom_site_fract_z
 _atom_site_occupancy
  Ni  Ni0  1  0.00000000  0.99703304  0.00000000  1
  Cr  Cr1  1  0.24861934  0.24865363  0.24873026  1
  Cr  Cr2  1  0.00000000  0.99689169  0.50000000  1
  Cr  Cr3  1  0.24858669  0.24871172  0.75174763  1
  Ni  Ni4  1  0.00000000  0.50356102  0.00000000  1
  Ni  Ni5  1  0.24841928  0.75161338  0.24848730  1
  Cr  Cr6  1  0.00000000  0.50246556  0.50000000  1
  Cr  Cr7  1  0.24841060  0.75151567  0.75125895  1
  Cr  Cr8  1  0.50000000  0.99731718  0.00000000  1
  Cr  Cr9  1  0.75141331  0.24871172  0.24825237  1
  Ni  Ni10  1  0.50000000  0.99635949  0.50000000  1
  Cr  Cr11  1  0.75138066  0.24865363  0.75126974  1
  Cr  Cr12  1  0.50000000  0.50289145  0.00000000  1
  Cr  Cr13  1  0.75158940  0.75151567  0.24874105  1
  Cr  Cr14  1  0.50000000  0.50249177  0.50000000  1
  Ni  Ni15  1  0.75158072  0.75161338  0.75151270  1
" 