53,NiCr60_13,-63.6873708700503, 121.47320488175,NiCr60,"# generated using pymatgen
 data_Cr9Ni7
_symmetry_space_group_name_H-M   'P 1'
_cell_length_a   4.97803174
_cell_length_b   4.97803174
_cell_length_c   7.04000000
_cell_angle_alpha   90.00000000
_cell_angle_beta   90.00000000
_cell_angle_gamma   90.00000000
_symmetry_Int_Tables_number   1
_chemical_formula_structural   Cr9Ni7
_chemical_formula_sum   'Cr9 Ni7'
_cell_volume   174.45683200
_cell_formula_units_Z   1
loop_
 _symmetry_equiv_pos_site_id
 _symmetry_equiv_pos_as_xyz
  1  'x, y, z'
loop_
 _atom_site_type_symbol
 _atom_site_label
 _atom_site_symmetry_multiplicity
 _atom_site_fract_x
 _atom_site_fract_y
 _atom_site_fract_z
 _atom_site_occupancy
  Ni  Ni0  1  0.00148343  0.99828145  0.00138926  1
  Ni  Ni1  1  0.24653074  0.24993207  0.24633931  1
  Cr  Cr2  1  0.00195975  0.99853823  0.49825075  1
  Cr  Cr3  1  0.24726981  0.25001564  0.75316116  1
  Ni  Ni4  1  0.00161350  0.50173530  0.00159441  1
  Ni  Ni5  1  0.24675084  0.75008125  0.24717397  1
  Ni  Ni6  1  0.00166287  0.50132170  0.49833116  1
  Cr  Cr7  1  0.24681357  0.75005062  0.75294891  1
  Ni  Ni8  1  0.49823245  0.99813560  0.00184596  1
  Cr  Cr9  1  0.75276905  0.24991590  0.24634745  1
  Cr  Cr10  1  0.49899615  0.99904172  0.49875482  1
  Cr  Cr11  1  0.75293595  0.24994222  0.75307522  1
  Cr  Cr12  1  0.49837215  0.50155197  0.00176403  1
  Cr  Cr13  1  0.75298267  0.75009854  0.24741306  1
  Cr  Cr14  1  0.49846788  0.50148293  0.49823583  1
  Ni  Ni15  1  0.75315920  0.74987485  0.75337468  1
" 