7,NiCr60_12,-64.1789309458069, 133.353062269109,NiCr60,"# generated using pymatgen
 data_Cr9Ni7
_symmetry_space_group_name_H-M   'P 1'
_cell_length_a   4.97803174
_cell_length_b   4.97803174
_cell_length_c   7.04000000
_cell_angle_alpha   90.00000000
_cell_angle_beta   90.00000000
_cell_angle_gamma   90.00000000
_symmetry_Int_Tables_number   1
_chemical_formula_structural   Cr9Ni7
_chemical_formula_sum   'Cr9 Ni7'
_cell_volume   174.45683200
_cell_formula_units_Z   1
loop_
 _symmetry_equiv_pos_site_id
 _symmetry_equiv_pos_as_xyz
  1  'x, y, z'
loop_
 _atom_site_type_symbol
 _atom_site_label
 _atom_site_symmetry_multiplicity
 _atom_site_fract_x
 _atom_site_fract_y
 _atom_site_fract_z
 _atom_site_occupancy
  Ni  Ni0  1  0.99847685  0.00178807  0.99556604  1
  Cr  Cr1  1  0.25193919  0.24769555  0.24754353  1
  Cr  Cr2  1  0.99848211  0.00154407  0.50366327  1
  Ni  Ni3  1  0.25343468  0.24660147  0.75331848  1
  Cr  Cr4  1  0.99871920  0.49871920  0.99576843  1
  Cr  Cr5  1  0.25297925  0.75297925  0.24643713  1
  Cr  Cr6  1  0.99875737  0.49875737  0.50541709  1
  Cr  Cr7  1  0.25317845  0.75317845  0.75300637  1
  Ni  Ni8  1  0.50163925  0.00163925  0.99615712  1
  Cr  Cr9  1  0.74659507  0.24659507  0.24637003  1
  Ni  Ni10  1  0.50147160  0.00147160  0.50375142  1
  Ni  Ni11  1  0.74669782  0.24669782  0.75290977  1
  Ni  Ni12  1  0.50178807  0.49847685  0.99556604  1
  Cr  Cr13  1  0.74769555  0.75193919  0.24754353  1
  Cr  Cr14  1  0.50154407  0.49848211  0.50366327  1
  Ni  Ni15  1  0.74660147  0.75343468  0.75331848  1
" 