302,NiCr80_6,-61.6853767856597, 153.070332093891,NiCr80,"# generated using pymatgen
 data_Cr3Ni
_symmetry_space_group_name_H-M   'P 1'
_cell_length_a   4.97803174
_cell_length_b   4.97803174
_cell_length_c   7.04000000
_cell_angle_alpha   90.00000000
_cell_angle_beta   90.00000000
_cell_angle_gamma   90.00000000
_symmetry_Int_Tables_number   1
_chemical_formula_structural   Cr3Ni
_chemical_formula_sum   'Cr12 Ni4'
_cell_volume   174.45683200
_cell_formula_units_Z   4
loop_
 _symmetry_equiv_pos_site_id
 _symmetry_equiv_pos_as_xyz
  1  'x, y, z'
loop_
 _atom_site_type_symbol
 _atom_site_label
 _atom_site_symmetry_multiplicity
 _atom_site_fract_x
 _atom_site_fract_y
 _atom_site_fract_z
 _atom_site_occupancy
  Ni  Ni0  1  0.99517237  0.00162558  0.00170349  1
  Cr  Cr1  1  0.24862816  0.24854031  0.24830943  1
  Cr  Cr2  1  0.99601204  0.00136118  0.49874556  1
  Cr  Cr3  1  0.24864172  0.24849667  0.75144620  1
  Cr  Cr4  1  0.99528141  0.49863935  0.00143638  1
  Cr  Cr5  1  0.24888344  0.75114558  0.24874126  1
  Cr  Cr6  1  0.99524526  0.49841266  0.49826414  1
  Cr  Cr7  1  0.24885092  0.75120372  0.75146320  1
  Cr  Cr8  1  0.50447952  0.00149356  0.00145699  1
  Ni  Ni9  1  0.75173501  0.24844543  0.24855151  1
  Cr  Cr10  1  0.50461520  0.00162065  0.49823893  1
  Ni  Ni11  1  0.75174042  0.24834772  0.75145275  1
  Cr  Cr12  1  0.50368067  0.49881574  0.00148840  1
  Ni  Ni13  1  0.75189078  0.75157359  0.24857425  1
  Cr  Cr14  1  0.50350497  0.49876392  0.49878396  1
  Cr  Cr15  1  0.75163809  0.75151433  0.75134357  1
" 