265,NiCr50_0,-64.9206985441956, 141.978620091109,NiCr50,"# generated using pymatgen
 data_CrNi
_symmetry_space_group_name_H-M   'P 1'
_cell_length_a   4.97803174
_cell_length_b   4.97803174
_cell_length_c   7.04000000
_cell_angle_alpha   90.00000000
_cell_angle_beta   90.00000000
_cell_angle_gamma   90.00000000
_symmetry_Int_Tables_number   1
_chemical_formula_structural   CrNi
_chemical_formula_sum   'Cr8 Ni8'
_cell_volume   174.45683200
_cell_formula_units_Z   8
loop_
 _symmetry_equiv_pos_site_id
 _symmetry_equiv_pos_as_xyz
  1  'x, y, z'
loop_
 _atom_site_type_symbol
 _atom_site_label
 _atom_site_symmetry_multiplicity
 _atom_site_fract_x
 _atom_site_fract_y
 _atom_site_fract_z
 _atom_site_occupancy
  Ni  Ni0  1  0.00716928  0.00000000  0.00000000  1
  Ni  Ni1  1  0.24674528  0.25298799  0.24997629  1
  Cr  Cr2  1  0.00638342  0.00000000  0.50000000  1
  Ni  Ni3  1  0.24674528  0.25298799  0.75002371  1
  Ni  Ni4  1  0.00582542  0.50000000  0.00000000  1
  Ni  Ni5  1  0.24674528  0.74701201  0.24997629  1
  Ni  Ni6  1  0.00572438  0.50000000  0.50000000  1
  Ni  Ni7  1  0.24674528  0.74701201  0.75002371  1
  Cr  Cr8  1  0.49535329  0.00000000  0.00000000  1
  Cr  Cr9  1  0.75259105  0.25272450  0.24999946  1
  Cr  Cr10  1  0.49540012  0.00000000  0.50000000  1
  Cr  Cr11  1  0.75259105  0.25272450  0.75000054  1
  Cr  Cr12  1  0.49378003  0.50000000  0.00000000  1
  Cr  Cr13  1  0.75259105  0.74727550  0.24999946  1
  Ni  Ni14  1  0.49301874  0.50000000  0.50000000  1
  Cr  Cr15  1  0.75259105  0.74727550  0.75000054  1
" 