324,NiCr40_1,-66.1725650847602, 130.196835616504,NiCr40,"# generated using pymatgen
 data_Cr3Ni5
_symmetry_space_group_name_H-M   'P 1'
_cell_length_a   4.97803174
_cell_length_b   4.97803174
_cell_length_c   7.04000000
_cell_angle_alpha   90.00000000
_cell_angle_beta   90.00000000
_cell_angle_gamma   90.00000000
_symmetry_Int_Tables_number   1
_chemical_formula_structural   Cr3Ni5
_chemical_formula_sum   'Cr6 Ni10'
_cell_volume   174.45683200
_cell_formula_units_Z   2
loop_
 _symmetry_equiv_pos_site_id
 _symmetry_equiv_pos_as_xyz
  1  'x, y, z'
loop_
 _atom_site_type_symbol
 _atom_site_label
 _atom_site_symmetry_multiplicity
 _atom_site_fract_x
 _atom_site_fract_y
 _atom_site_fract_z
 _atom_site_occupancy
  Ni  Ni0  1  0.00006335  0.99664940  0.99996108  1
  Cr  Cr1  1  0.25337414  0.24680320  0.25000000  1
  Ni  Ni2  1  0.00006335  0.99664940  0.50003892  1
  Cr  Cr3  1  0.25407739  0.24570976  0.75000000  1
  Cr  Cr4  1  0.99995888  0.50266642  0.99945741  1
  Ni  Ni5  1  0.25325947  0.75265147  0.25000000  1
  Cr  Cr6  1  0.99995888  0.50266642  0.50054259  1
  Ni  Ni7  1  0.25171576  0.75223548  0.75000000  1
  Ni  Ni8  1  0.49997000  0.99727519  0.00042459  1
  Cr  Cr9  1  0.74802466  0.24738889  0.25000000  1
  Ni  Ni10  1  0.49997000  0.99727519  0.49957541  1
  Ni  Ni11  1  0.74734754  0.24793080  0.75000000  1
  Ni  Ni12  1  0.49992541  0.50327780  0.00000923  1
  Ni  Ni13  1  0.74758717  0.75262668  0.25000000  1
  Ni  Ni14  1  0.49992541  0.50327780  0.49999077  1
  Cr  Cr15  1  0.74477861  0.75491609  0.75000000  1
" 