126,NiCr50_5,-64.5332840241494, 124.62082048317,NiCr50,"# generated using pymatgen
 data_CrNi
_symmetry_space_group_name_H-M   'P 1'
_cell_length_a   4.97803174
_cell_length_b   4.97803174
_cell_length_c   7.04000000
_cell_angle_alpha   90.00000000
_cell_angle_beta   90.00000000
_cell_angle_gamma   90.00000000
_symmetry_Int_Tables_number   1
_chemical_formula_structural   CrNi
_chemical_formula_sum   'Cr8 Ni8'
_cell_volume   174.45683200
_cell_formula_units_Z   8
loop_
 _symmetry_equiv_pos_site_id
 _symmetry_equiv_pos_as_xyz
  1  'x, y, z'
loop_
 _atom_site_type_symbol
 _atom_site_label
 _atom_site_symmetry_multiplicity
 _atom_site_fract_x
 _atom_site_fract_y
 _atom_site_fract_z
 _atom_site_occupancy
  Ni  Ni0  1  0.99817332  0.00196656  0.99831348  1
  Cr  Cr1  1  0.24874143  0.25106309  0.24886514  1
  Ni  Ni2  1  0.99860542  0.00115923  0.50165635  1
  Ni  Ni3  1  0.24868020  0.25151881  0.75153383  1
  Ni  Ni4  1  0.99851012  0.49851012  0.99925125  1
  Cr  Cr5  1  0.24879364  0.74879364  0.24753857  1
  Cr  Cr6  1  0.99840465  0.49840465  0.50111075  1
  Cr  Cr7  1  0.24782118  0.74782118  0.75161809  1
  Cr  Cr8  1  0.50165200  0.00165200  0.99742053  1
  Ni  Ni9  1  0.75104978  0.25104978  0.24889546  1
  Cr  Cr10  1  0.50132153  0.00132153  0.50230558  1
  Cr  Cr11  1  0.75253904  0.25253904  0.75112218  1
  Ni  Ni12  1  0.50196656  0.49817332  0.99831348  1
  Cr  Cr13  1  0.75106309  0.74874143  0.24886514  1
  Ni  Ni14  1  0.50115923  0.49860542  0.50165635  1
  Ni  Ni15  1  0.75151881  0.74868020  0.75153383  1
" 