149,NiCr40_9,-66.1653429306783, 131.521297821555,NiCr40,"# generated using pymatgen
 data_Cr3Ni5
_symmetry_space_group_name_H-M   'P 1'
_cell_length_a   4.97803174
_cell_length_b   4.97803174
_cell_length_c   7.04000000
_cell_angle_alpha   90.00000000
_cell_angle_beta   90.00000000
_cell_angle_gamma   90.00000000
_symmetry_Int_Tables_number   1
_chemical_formula_structural   Cr3Ni5
_chemical_formula_sum   'Cr6 Ni10'
_cell_volume   174.45683200
_cell_formula_units_Z   2
loop_
 _symmetry_equiv_pos_site_id
 _symmetry_equiv_pos_as_xyz
  1  'x, y, z'
loop_
 _atom_site_type_symbol
 _atom_site_label
 _atom_site_symmetry_multiplicity
 _atom_site_fract_x
 _atom_site_fract_y
 _atom_site_fract_z
 _atom_site_occupancy
  Ni  Ni0  1  0.00182641  0.99817359  0.99820492  1
  Ni  Ni1  1  0.24851084  0.24872140  0.24838635  1
  Ni  Ni2  1  0.00113812  0.99886188  0.50133286  1
  Ni  Ni3  1  0.24860299  0.24835528  0.75180616  1
  Ni  Ni4  1  0.00148877  0.50136884  0.99873600  1
  Cr  Cr5  1  0.24778854  0.75221146  0.24810382  1
  Cr  Cr6  1  0.00169878  0.50182412  0.50132274  1
  Ni  Ni7  1  0.24868332  0.75131668  0.75124392  1
  Ni  Ni8  1  0.49863116  0.99851123  0.99873600  1
  Cr  Cr9  1  0.75184275  0.24815725  0.24804205  1
  Cr  Cr10  1  0.49817588  0.99830122  0.50132274  1
  Cr  Cr11  1  0.75157065  0.24842935  0.75230131  1
  Cr  Cr12  1  0.49839753  0.50160247  0.99893628  1
  Ni  Ni13  1  0.75127860  0.75148916  0.24838635  1
  Ni  Ni14  1  0.49872093  0.50127907  0.50133237  1
  Ni  Ni15  1  0.75164472  0.75139701  0.75180616  1
" 