368,NiCr50_7,-64.2766889094047, 112.819049185823,NiCr50,"# generated using pymatgen
 data_CrNi
_symmetry_space_group_name_H-M   'P 1'
_cell_length_a   4.97803174
_cell_length_b   4.97803174
_cell_length_c   7.04000000
_cell_angle_alpha   90.00000000
_cell_angle_beta   90.00000000
_cell_angle_gamma   90.00000000
_symmetry_Int_Tables_number   1
_chemical_formula_structural   CrNi
_chemical_formula_sum   'Cr8 Ni8'
_cell_volume   174.45683200
_cell_formula_units_Z   8
loop_
 _symmetry_equiv_pos_site_id
 _symmetry_equiv_pos_as_xyz
  1  'x, y, z'
loop_
 _atom_site_type_symbol
 _atom_site_label
 _atom_site_symmetry_multiplicity
 _atom_site_fract_x
 _atom_site_fract_y
 _atom_site_fract_z
 _atom_site_occupancy
  Ni  Ni0  1  0.00156605  0.00149178  0.99852436  1
  Cr  Cr1  1  0.24805007  0.24830356  0.24828435  1
  Cr  Cr2  1  0.00175774  0.00176415  0.50159591  1
  Ni  Ni3  1  0.24855156  0.24853195  0.75127066  1
  Ni  Ni4  1  0.00166127  0.49820064  0.99816423  1
  Ni  Ni5  1  0.24837005  0.75137577  0.24834295  1
  Cr  Cr6  1  0.00134352  0.49878689  0.50164638  1
  Ni  Ni7  1  0.24838660  0.75177783  0.75178570  1
  Cr  Cr8  1  0.49829751  0.00149893  0.99864112  1
  Ni  Ni9  1  0.75146784  0.24845254  0.24833855  1
  Ni  Ni10  1  0.49863785  0.00150574  0.50163696  1
  Ni  Ni11  1  0.75175881  0.24832476  0.75179396  1
  Cr  Cr12  1  0.49840087  0.49844109  0.99814586  1
  Cr  Cr13  1  0.75163495  0.75146502  0.24818557  1
  Cr  Cr14  1  0.49855706  0.49851870  0.50154055  1
  Cr  Cr15  1  0.75155825  0.75156067  0.75210289  1
" 