421,NiCr50_12,-64.5671492658878, 119.174568893494,NiCr50,"# generated using pymatgen
 data_CrNi
_symmetry_space_group_name_H-M   'P 1'
_cell_length_a   4.97803174
_cell_length_b   4.97803174
_cell_length_c   7.04000000
_cell_angle_alpha   90.00000000
_cell_angle_beta   90.00000000
_cell_angle_gamma   90.00000000
_symmetry_Int_Tables_number   1
_chemical_formula_structural   CrNi
_chemical_formula_sum   'Cr8 Ni8'
_cell_volume   174.45683200
_cell_formula_units_Z   8
loop_
 _symmetry_equiv_pos_site_id
 _symmetry_equiv_pos_as_xyz
  1  'x, y, z'
loop_
 _atom_site_type_symbol
 _atom_site_label
 _atom_site_symmetry_multiplicity
 _atom_site_fract_x
 _atom_site_fract_y
 _atom_site_fract_z
 _atom_site_occupancy
  Cr  Cr0  1  0.00138904  0.00145706  0.99501130  1
  Ni  Ni1  1  0.25112942  0.25154698  0.25145078  1
  Cr  Cr2  1  0.00150485  0.00138492  0.50585736  1
  Ni  Ni3  1  0.25200601  0.25167618  0.74855028  1
  Cr  Cr4  1  0.00107099  0.49874467  0.99498318  1
  Cr  Cr5  1  0.25117503  0.74844791  0.25148766  1
  Ni  Ni6  1  0.00186572  0.49816702  0.50567576  1
  Ni  Ni7  1  0.25185224  0.74847661  0.74858178  1
  Ni  Ni8  1  0.49828205  0.00155446  0.99523039  1
  Cr  Cr9  1  0.74902855  0.25168479  0.25144193  1
  Cr  Cr10  1  0.49862248  0.00149451  0.50374207  1
  Ni  Ni11  1  0.74806958  0.25142622  0.74863358  1
  Cr  Cr12  1  0.49831647  0.49842397  0.99571520  1
  Cr  Cr13  1  0.74934350  0.74897279  0.25147639  1
  Ni  Ni14  1  0.49862835  0.49845465  0.50396777  1
  Ni  Ni15  1  0.74771571  0.74808728  0.74819457  1
" 