420,NiCr80_5,-61.6853767856597, 153.070332092774,NiCr80,"# generated using pymatgen
 data_Cr3Ni
_symmetry_space_group_name_H-M   'P 1'
_cell_length_a   4.97803174
_cell_length_b   4.97803174
_cell_length_c   7.04000000
_cell_angle_alpha   90.00000000
_cell_angle_beta   90.00000000
_cell_angle_gamma   90.00000000
_symmetry_Int_Tables_number   1
_chemical_formula_structural   Cr3Ni
_chemical_formula_sum   'Cr12 Ni4'
_cell_volume   174.45683200
_cell_formula_units_Z   4
loop_
 _symmetry_equiv_pos_site_id
 _symmetry_equiv_pos_as_xyz
  1  'x, y, z'
loop_
 _atom_site_type_symbol
 _atom_site_label
 _atom_site_symmetry_multiplicity
 _atom_site_fract_x
 _atom_site_fract_y
 _atom_site_fract_z
 _atom_site_occupancy
  Cr  Cr0  1  0.00111656  0.00114558  0.00125874  1
  Ni  Ni1  1  0.25482763  0.25162558  0.24829651  1
  Cr  Cr2  1  0.00114908  0.00120372  0.49853680  1
  Cr  Cr3  1  0.25398796  0.25136118  0.75125444  1
  Cr  Cr4  1  0.00137184  0.49854031  0.00169057  1
  Cr  Cr5  1  0.25471859  0.74863935  0.24856362  1
  Cr  Cr6  1  0.00135828  0.49849667  0.49855380  1
  Cr  Cr7  1  0.25475474  0.74841266  0.75173586  1
  Ni  Ni8  1  0.49810922  0.00157359  0.00142575  1
  Cr  Cr9  1  0.74552048  0.25149356  0.24854301  1
  Cr  Cr10  1  0.49836191  0.00151433  0.49865643  1
  Cr  Cr11  1  0.74538480  0.25162065  0.75176107  1
  Ni  Ni12  1  0.49826499  0.49844543  0.00144849  1
  Cr  Cr13  1  0.74631933  0.74881574  0.24851160  1
  Ni  Ni14  1  0.49825958  0.49834772  0.49854725  1
  Cr  Cr15  1  0.74649503  0.74876392  0.75121604  1
" 