284,NiCr80_0,-61.4379766250156, 147.841373147195,NiCr80,"# generated using pymatgen
 data_Cr3Ni
_symmetry_space_group_name_H-M   'P 1'
_cell_length_a   4.97803174
_cell_length_b   4.97803174
_cell_length_c   7.04000000
_cell_angle_alpha   90.00000000
_cell_angle_beta   90.00000000
_cell_angle_gamma   90.00000000
_symmetry_Int_Tables_number   1
_chemical_formula_structural   Cr3Ni
_chemical_formula_sum   'Cr12 Ni4'
_cell_volume   174.45683200
_cell_formula_units_Z   4
loop_
 _symmetry_equiv_pos_site_id
 _symmetry_equiv_pos_as_xyz
  1  'x, y, z'
loop_
 _atom_site_type_symbol
 _atom_site_label
 _atom_site_symmetry_multiplicity
 _atom_site_fract_x
 _atom_site_fract_y
 _atom_site_fract_z
 _atom_site_occupancy
  Cr  Cr0  1  0.00161226  0.00157122  0.99856320  1
  Cr  Cr1  1  0.24864778  0.25158795  0.24862914  1
  Cr  Cr2  1  0.00164536  0.00146701  0.50169745  1
  Ni  Ni3  1  0.24819849  0.25148481  0.75144128  1
  Ni  Ni4  1  0.00164494  0.49835799  0.99834853  1
  Cr  Cr5  1  0.24866766  0.74869450  0.24852060  1
  Cr  Cr6  1  0.00141259  0.49870277  0.50125638  1
  Ni  Ni7  1  0.24804873  0.74820497  0.75183559  1
  Cr  Cr8  1  0.49872918  0.00128291  0.99851818  1
  Ni  Ni9  1  0.75188561  0.25200872  0.24823295  1
  Cr  Cr10  1  0.49877303  0.00113635  0.50122894  1
  Cr  Cr11  1  0.75128243  0.25129986  0.75122834  1
  Cr  Cr12  1  0.49841336  0.49838601  0.99854597  1
  Cr  Cr13  1  0.75142165  0.74877584  0.24854986  1
  Cr  Cr14  1  0.49839734  0.49848356  0.50171553  1
  Cr  Cr15  1  0.75121959  0.74855555  0.75168805  1
" 