182,NiCr70_9,-62.2968865927696, 145.022753102795,NiCr70,"# generated using pymatgen
 data_Cr11Ni5
_symmetry_space_group_name_H-M   'P 1'
_cell_length_a   4.97803174
_cell_length_b   4.97803174
_cell_length_c   7.04000000
_cell_angle_alpha   90.00000000
_cell_angle_beta   90.00000000
_cell_angle_gamma   90.00000000
_symmetry_Int_Tables_number   1
_chemical_formula_structural   Cr11Ni5
_chemical_formula_sum   'Cr11 Ni5'
_cell_volume   174.45683200
_cell_formula_units_Z   1
loop_
 _symmetry_equiv_pos_site_id
 _symmetry_equiv_pos_as_xyz
  1  'x, y, z'
loop_
 _atom_site_type_symbol
 _atom_site_label
 _atom_site_symmetry_multiplicity
 _atom_site_fract_x
 _atom_site_fract_y
 _atom_site_fract_z
 _atom_site_occupancy
  Ni  Ni0  1  0.99833099  0.00153633  0.00151262  1
  Cr  Cr1  1  0.24729427  0.25000000  0.25000000  1
  Cr  Cr2  1  0.99841377  0.00149536  0.49876666  1
  Ni  Ni3  1  0.24659295  0.25000000  0.75000000  1
  Cr  Cr4  1  0.99841377  0.49850464  0.00123334  1
  Cr  Cr5  1  0.24742550  0.75000000  0.25000000  1
  Ni  Ni6  1  0.99833099  0.49846367  0.49848738  1
  Cr  Cr7  1  0.24720894  0.75000000  0.75000000  1
  Cr  Cr8  1  0.50139373  0.00135813  0.00127345  1
  Ni  Ni9  1  0.75342527  0.25000000  0.25000000  1
  Cr  Cr10  1  0.50135432  0.00136721  0.49822978  1
  Cr  Cr11  1  0.75273680  0.25000000  0.75000000  1
  Cr  Cr12  1  0.50135432  0.49863279  0.00177022  1
  Ni  Ni13  1  0.75371777  0.75000000  0.25000000  1
  Cr  Cr14  1  0.50139373  0.49864187  0.49872655  1
  Cr  Cr15  1  0.75261287  0.75000000  0.75000000  1
" 