71,NiCr50_2,-64.2910477379706, 116.788698523248,NiCr50,"# generated using pymatgen
 data_CrNi
_symmetry_space_group_name_H-M   'P 1'
_cell_length_a   4.97803174
_cell_length_b   4.97803174
_cell_length_c   7.04000000
_cell_angle_alpha   90.00000000
_cell_angle_beta   90.00000000
_cell_angle_gamma   90.00000000
_symmetry_Int_Tables_number   1
_chemical_formula_structural   CrNi
_chemical_formula_sum   'Cr8 Ni8'
_cell_volume   174.45683200
_cell_formula_units_Z   8
loop_
 _symmetry_equiv_pos_site_id
 _symmetry_equiv_pos_as_xyz
  1  'x, y, z'
loop_
 _atom_site_type_symbol
 _atom_site_label
 _atom_site_symmetry_multiplicity
 _atom_site_fract_x
 _atom_site_fract_y
 _atom_site_fract_z
 _atom_site_occupancy
  Cr  Cr0  1  0.00000000  0.00000000  0.00000000  1
  Ni  Ni1  1  0.25325637  0.25000000  0.25000000  1
  Cr  Cr2  1  0.00000000  0.00000000  0.50000000  1
  Ni  Ni3  1  0.25317038  0.25000000  0.75000000  1
  Cr  Cr4  1  0.00000000  0.50000000  0.00000000  1
  Cr  Cr5  1  0.25304778  0.75000000  0.25000000  1
  Cr  Cr6  1  0.00000000  0.50000000  0.50000000  1
  Ni  Ni7  1  0.25325156  0.75000000  0.75000000  1
  Ni  Ni8  1  0.50000000  0.00000000  0.00000000  1
  Ni  Ni9  1  0.74674844  0.25000000  0.25000000  1
  Cr  Cr10  1  0.50000000  0.00000000  0.50000000  1
  Cr  Cr11  1  0.74695222  0.25000000  0.75000000  1
  Cr  Cr12  1  0.50000000  0.50000000  0.00000000  1
  Ni  Ni13  1  0.74682962  0.75000000  0.25000000  1
  Ni  Ni14  1  0.50000000  0.50000000  0.50000000  1
  Ni  Ni15  1  0.74674363  0.75000000  0.75000000  1
" 