362,NiCr60_8,-63.6873708700503, 121.473204881778,NiCr60,"# generated using pymatgen
 data_Cr9Ni7
_symmetry_space_group_name_H-M   'P 1'
_cell_length_a   4.97803174
_cell_length_b   4.97803174
_cell_length_c   7.04000000
_cell_angle_alpha   90.00000000
_cell_angle_beta   90.00000000
_cell_angle_gamma   90.00000000
_symmetry_Int_Tables_number   1
_chemical_formula_structural   Cr9Ni7
_chemical_formula_sum   'Cr9 Ni7'
_cell_volume   174.45683200
_cell_formula_units_Z   1
loop_
 _symmetry_equiv_pos_site_id
 _symmetry_equiv_pos_as_xyz
  1  'x, y, z'
loop_
 _atom_site_type_symbol
 _atom_site_label
 _atom_site_symmetry_multiplicity
 _atom_site_fract_x
 _atom_site_fract_y
 _atom_site_fract_z
 _atom_site_occupancy
  Ni  Ni0  1  0.00346926  0.00006793  0.00366069  1
  Ni  Ni1  1  0.24851657  0.25171855  0.24861074  1
  Cr  Cr2  1  0.00273019  0.99998436  0.49683884  1
  Cr  Cr3  1  0.24804025  0.25146177  0.75174925  1
  Ni  Ni4  1  0.00324916  0.49991875  0.00282603  1
  Ni  Ni5  1  0.24838650  0.74826470  0.24840559  1
  Cr  Cr6  1  0.00318643  0.49994938  0.49705109  1
  Ni  Ni7  1  0.24833713  0.74867830  0.75166884  1
  Cr  Cr8  1  0.49723095  0.00008410  0.00365255  1
  Ni  Ni9  1  0.75176755  0.25186440  0.24815404  1
  Cr  Cr10  1  0.49706405  0.00005778  0.49692478  1
  Cr  Cr11  1  0.75100385  0.25095828  0.75124518  1
  Cr  Cr12  1  0.49701733  0.49990146  0.00258694  1
  Cr  Cr13  1  0.75162785  0.74844803  0.24823597  1
  Ni  Ni14  1  0.49684080  0.50012515  0.49662532  1
  Cr  Cr15  1  0.75153212  0.74851707  0.75176417  1
" 