244,NiFe60_6,-70.9910883027516, 225.755634434061,NiFe60,"# generated using pymatgen
 data_Fe9Ni7
_symmetry_space_group_name_H-M   'P 1'
_cell_length_a   4.97803174
_cell_length_b   4.97803174
_cell_length_c   7.04000000
_cell_angle_alpha   90.00000000
_cell_angle_beta   90.00000000
_cell_angle_gamma   90.00000000
_symmetry_Int_Tables_number   1
_chemical_formula_structural   Fe9Ni7
_chemical_formula_sum   'Fe9 Ni7'
_cell_volume   174.45683200
_cell_formula_units_Z   1
loop_
 _symmetry_equiv_pos_site_id
 _symmetry_equiv_pos_as_xyz
  1  'x, y, z'
loop_
 _atom_site_type_symbol
 _atom_site_label
 _atom_site_symmetry_multiplicity
 _atom_site_fract_x
 _atom_site_fract_y
 _atom_site_fract_z
 _atom_site_occupancy
  Fe  Fe0  1  0.99939304  0.00054987  0.00063986  1
  Ni  Ni1  1  0.25014657  0.25033106  0.25000000  1
  Fe  Fe2  1  0.99939304  0.00054987  0.49936014  1
  Fe  Fe3  1  0.25177127  0.25143928  0.75000000  1
  Fe  Fe4  1  0.99908806  0.49923325  0.00077603  1
  Ni  Ni5  1  0.24940054  0.74987952  0.25000000  1
  Fe  Fe6  1  0.99908806  0.49923325  0.49922397  1
  Fe  Fe7  1  0.25175331  0.74877076  0.75000000  1
  Fe  Fe8  1  0.50085527  0.00073050  0.00062622  1
  Ni  Ni9  1  0.74945611  0.24976443  0.25000000  1
  Fe  Fe10  1  0.50085527  0.00073050  0.49937378  1
  Ni  Ni11  1  0.75037826  0.25037719  0.75000000  1
  Ni  Ni12  1  0.49992777  0.50010160  0.00035119  1
  Fe  Fe13  1  0.74804475  0.74835001  0.25000000  1
  Ni  Ni14  1  0.49992777  0.50010160  0.49964881  1
  Ni  Ni15  1  0.75052090  0.74985731  0.75000000  1
" 