340,NiFe40_10,-71.9574779705415, 220.930204795671,NiFe40,"# generated using pymatgen
 data_Fe3Ni5
_symmetry_space_group_name_H-M   'P 1'
_cell_length_a   4.97803174
_cell_length_b   4.97803174
_cell_length_c   7.04000000
_cell_angle_alpha   90.00000000
_cell_angle_beta   90.00000000
_cell_angle_gamma   90.00000000
_symmetry_Int_Tables_number   1
_chemical_formula_structural   Fe3Ni5
_chemical_formula_sum   'Fe6 Ni10'
_cell_volume   174.45683200
_cell_formula_units_Z   2
loop_
 _symmetry_equiv_pos_site_id
 _symmetry_equiv_pos_as_xyz
  1  'x, y, z'
loop_
 _atom_site_type_symbol
 _atom_site_label
 _atom_site_symmetry_multiplicity
 _atom_site_fract_x
 _atom_site_fract_y
 _atom_site_fract_z
 _atom_site_occupancy
  Ni  Ni0  1  0.99949034  0.99967134  0.00082999  1
  Fe  Fe1  1  0.24864333  0.25000000  0.24874512  1
  Ni  Ni2  1  0.00025206  0.99971923  0.49931965  1
  Fe  Fe3  1  0.24874894  0.25000000  0.75119785  1
  Ni  Ni4  1  0.99949034  0.50032866  0.00082999  1
  Ni  Ni5  1  0.24990773  0.75000000  0.24929792  1
  Ni  Ni6  1  0.00025206  0.50028077  0.49931965  1
  Fe  Fe7  1  0.24835358  0.75000000  0.75127586  1
  Ni  Ni8  1  0.50001839  0.99978331  0.00049536  1
  Ni  Ni9  1  0.74981675  0.25000000  0.24941866  1
  Fe  Fe10  1  0.50151525  0.99868833  0.49880808  1
  Fe  Fe11  1  0.75158807  0.25000000  0.75118878  1
  Ni  Ni12  1  0.50001839  0.50021669  0.00049536  1
  Ni  Ni13  1  0.75051319  0.75000000  0.24923493  1
  Fe  Fe14  1  0.50151525  0.50131167  0.49880808  1
  Ni  Ni15  1  0.74987632  0.75000000  0.75073471  1
" 