321,NiFe20_11,-71.9838126692128, 209.872699977734,NiFe20,"# generated using pymatgen
 data_Fe3Ni13
_symmetry_space_group_name_H-M   'P 1'
_cell_length_a   4.97803174
_cell_length_b   4.97803174
_cell_length_c   7.04000000
_cell_angle_alpha   90.00000000
_cell_angle_beta   90.00000000
_cell_angle_gamma   90.00000000
_symmetry_Int_Tables_number   1
_chemical_formula_structural   Fe3Ni13
_chemical_formula_sum   'Fe3 Ni13'
_cell_volume   174.45683200
_cell_formula_units_Z   1
loop_
 _symmetry_equiv_pos_site_id
 _symmetry_equiv_pos_as_xyz
  1  'x, y, z'
loop_
 _atom_site_type_symbol
 _atom_site_label
 _atom_site_symmetry_multiplicity
 _atom_site_fract_x
 _atom_site_fract_y
 _atom_site_fract_z
 _atom_site_occupancy
  Ni  Ni0  1  0.00000000  0.00000000  0.00000000  1
  Ni  Ni1  1  0.25042608  0.24985686  0.24967774  1
  Fe  Fe2  1  0.00000000  0.00000000  0.50000000  1
  Ni  Ni3  1  0.25042608  0.24985686  0.75032226  1
  Fe  Fe4  1  0.00000000  0.50000000  0.00000000  1
  Ni  Ni5  1  0.25042608  0.75014314  0.24967774  1
  Fe  Fe6  1  0.00000000  0.50000000  0.50000000  1
  Ni  Ni7  1  0.25042608  0.75014314  0.75032226  1
  Ni  Ni8  1  0.50000000  0.00000000  0.00000000  1
  Ni  Ni9  1  0.74957392  0.24985686  0.24967774  1
  Ni  Ni10  1  0.50000000  0.00000000  0.50000000  1
  Ni  Ni11  1  0.74957392  0.24985686  0.75032226  1
  Ni  Ni12  1  0.50000000  0.50000000  0.00000000  1
  Ni  Ni13  1  0.74957392  0.75014314  0.24967774  1
  Ni  Ni14  1  0.50000000  0.50000000  0.50000000  1
  Ni  Ni15  1  0.74957392  0.75014314  0.75032226  1
" 