212,NiFe70_2,-69.7278336097997, 207.596974880155,NiFe70,"# generated using pymatgen
 data_Fe11Ni5
_symmetry_space_group_name_H-M   'P 1'
_cell_length_a   4.97803174
_cell_length_b   4.97803174
_cell_length_c   7.04000000
_cell_angle_alpha   90.00000000
_cell_angle_beta   90.00000000
_cell_angle_gamma   90.00000000
_symmetry_Int_Tables_number   1
_chemical_formula_structural   Fe11Ni5
_chemical_formula_sum   'Fe11 Ni5'
_cell_volume   174.45683200
_cell_formula_units_Z   1
loop_
 _symmetry_equiv_pos_site_id
 _symmetry_equiv_pos_as_xyz
  1  'x, y, z'
loop_
 _atom_site_type_symbol
 _atom_site_label
 _atom_site_symmetry_multiplicity
 _atom_site_fract_x
 _atom_site_fract_y
 _atom_site_fract_z
 _atom_site_occupancy
  Fe  Fe0  1  0.99930920  0.99909222  0.00074038  1
  Fe  Fe1  1  0.25000000  0.25136219  0.25000000  1
  Fe  Fe2  1  0.99937060  0.99931539  0.49929740  1
  Fe  Fe3  1  0.25000000  0.25188096  0.75000000  1
  Ni  Ni4  1  0.00021065  0.49989035  0.00032673  1
  Fe  Fe5  1  0.25000000  0.74847527  0.25000000  1
  Fe  Fe6  1  0.99916257  0.50091650  0.49928050  1
  Ni  Ni7  1  0.25000000  0.75047926  0.75000000  1
  Fe  Fe8  1  0.50062940  0.99931539  0.00070260  1
  Ni  Ni9  1  0.75000000  0.25023257  0.25000000  1
  Fe  Fe10  1  0.50069080  0.99909222  0.49925962  1
  Fe  Fe11  1  0.75000000  0.25144700  0.75000000  1
  Fe  Fe12  1  0.50083743  0.50091650  0.00071950  1
  Ni  Ni13  1  0.75000000  0.74944137  0.25000000  1
  Ni  Ni14  1  0.49978935  0.49989035  0.49967327  1
  Fe  Fe15  1  0.75000000  0.74825247  0.75000000  1
" 