355,NiFe80_7,-69.4246019432396, 188.980706897094,NiFe80,"# generated using pymatgen
 data_Fe3Ni
_symmetry_space_group_name_H-M   'P 1'
_cell_length_a   4.97803174
_cell_length_b   4.97803174
_cell_length_c   7.04000000
_cell_angle_alpha   90.00000000
_cell_angle_beta   90.00000000
_cell_angle_gamma   90.00000000
_symmetry_Int_Tables_number   1
_chemical_formula_structural   Fe3Ni
_chemical_formula_sum   'Fe12 Ni4'
_cell_volume   174.45683200
_cell_formula_units_Z   4
loop_
 _symmetry_equiv_pos_site_id
 _symmetry_equiv_pos_as_xyz
  1  'x, y, z'
loop_
 _atom_site_type_symbol
 _atom_site_label
 _atom_site_symmetry_multiplicity
 _atom_site_fract_x
 _atom_site_fract_y
 _atom_site_fract_z
 _atom_site_occupancy
  Fe  Fe0  1  0.99919249  0.00080751  0.00085251  1
  Fe  Fe1  1  0.24910502  0.24903356  0.25081807  1
  Ni  Ni2  1  0.00007846  0.99992154  0.49961967  1
  Fe  Fe3  1  0.24908677  0.24923610  0.74921748  1
  Fe  Fe4  1  0.99924475  0.49926343  0.00080564  1
  Ni  Ni5  1  0.25029000  0.74971000  0.25015031  1
  Fe  Fe6  1  0.99923240  0.49911921  0.49915126  1
  Fe  Fe7  1  0.24938023  0.75061977  0.74929419  1
  Fe  Fe8  1  0.50073657  0.00075525  0.00080564  1
  Ni  Ni9  1  0.74990691  0.25009309  0.25040804  1
  Fe  Fe10  1  0.50088079  0.00076760  0.49915126  1
  Ni  Ni11  1  0.74981973  0.25018027  0.74968467  1
  Fe  Fe12  1  0.50068679  0.49931321  0.00076853  1
  Fe  Fe13  1  0.75096644  0.75089498  0.25081807  1
  Fe  Fe14  1  0.50062875  0.49937125  0.49923718  1
  Fe  Fe15  1  0.75076390  0.75091323  0.74921748  1
" 