317,NiFe70_12,-69.7278336097997, 207.596974880111,NiFe70,"# generated using pymatgen
 data_Fe11Ni5
_symmetry_space_group_name_H-M   'P 1'
_cell_length_a   4.97803174
_cell_length_b   4.97803174
_cell_length_c   7.04000000
_cell_angle_alpha   90.00000000
_cell_angle_beta   90.00000000
_cell_angle_gamma   90.00000000
_symmetry_Int_Tables_number   1
_chemical_formula_structural   Fe11Ni5
_chemical_formula_sum   'Fe11 Ni5'
_cell_volume   174.45683200
_cell_formula_units_Z   1
loop_
 _symmetry_equiv_pos_site_id
 _symmetry_equiv_pos_as_xyz
  1  'x, y, z'
loop_
 _atom_site_type_symbol
 _atom_site_label
 _atom_site_symmetry_multiplicity
 _atom_site_fract_x
 _atom_site_fract_y
 _atom_site_fract_z
 _atom_site_occupancy
  Fe  Fe0  1  0.99811904  0.00000000  0.00000000  1
  Fe  Fe1  1  0.25090778  0.25069080  0.25074038  1
  Fe  Fe2  1  0.99863781  0.00000000  0.50000000  1
  Fe  Fe3  1  0.25068461  0.25062940  0.74929740  1
  Fe  Fe4  1  0.99855300  0.50000000  0.00000000  1
  Fe  Fe5  1  0.25068461  0.74937060  0.25070260  1
  Ni  Ni6  1  0.99976743  0.50000000  0.50000000  1
  Fe  Fe7  1  0.25090778  0.74930920  0.74925962  1
  Ni  Ni8  1  0.49952074  0.00000000  0.00000000  1
  Ni  Ni9  1  0.75010965  0.24978935  0.25032673  1
  Fe  Fe10  1  0.50152473  0.00000000  0.50000000  1
  Fe  Fe11  1  0.74908350  0.25083743  0.74928050  1
  Fe  Fe12  1  0.50174753  0.50000000  0.00000000  1
  Fe  Fe13  1  0.74908350  0.74916257  0.25071950  1
  Ni  Ni14  1  0.50055863  0.50000000  0.50000000  1
  Ni  Ni15  1  0.75010965  0.75021065  0.74967327  1
" 