445,NiFe30_5,-71.8954436190267, 220.343164185403,NiFe30,"# generated using pymatgen
 data_FeNi3
_symmetry_space_group_name_H-M   'P 1'
_cell_length_a   4.97803174
_cell_length_b   4.97803174
_cell_length_c   7.04000000
_cell_angle_alpha   90.00000000
_cell_angle_beta   90.00000000
_cell_angle_gamma   90.00000000
_symmetry_Int_Tables_number   1
_chemical_formula_structural   FeNi3
_chemical_formula_sum   'Fe4 Ni12'
_cell_volume   174.45683200
_cell_formula_units_Z   4
loop_
 _symmetry_equiv_pos_site_id
 _symmetry_equiv_pos_as_xyz
  1  'x, y, z'
loop_
 _atom_site_type_symbol
 _atom_site_label
 _atom_site_symmetry_multiplicity
 _atom_site_fract_x
 _atom_site_fract_y
 _atom_site_fract_z
 _atom_site_occupancy
  Fe  Fe0  1  0.99931893  0.99921706  0.99943836  1
  Fe  Fe1  1  0.25072447  0.24918405  0.24939439  1
  Ni  Ni2  1  0.99992788  0.00014080  0.50027036  1
  Ni  Ni3  1  0.25007117  0.24994777  0.75027271  1
  Ni  Ni4  1  0.99993441  0.49977325  0.99975589  1
  Ni  Ni5  1  0.25006554  0.74982275  0.24973553  1
  Fe  Fe6  1  0.99936503  0.50077563  0.50057785  1
  Ni  Ni7  1  0.25004086  0.75015340  0.75027423  1
  Ni  Ni8  1  0.49989836  0.99981961  0.99967203  1
  Ni  Ni9  1  0.75013825  0.24987590  0.24966910  1
  Ni  Ni10  1  0.50016619  0.00013295  0.50026206  1
  Ni  Ni11  1  0.74983121  0.24990245  0.75033114  1
  Ni  Ni12  1  0.50016788  0.50003959  0.99972812  1
  Ni  Ni13  1  0.74984084  0.75022412  0.24963344  1
  Fe  Fe14  1  0.50068240  0.50074873  0.50054881  1
  Ni  Ni15  1  0.74982657  0.75024193  0.75043598  1
" 