166,NiFe20_7,-71.9740742715821, 209.916306538441,NiFe20,"# generated using pymatgen
 data_Fe3Ni13
_symmetry_space_group_name_H-M   'P 1'
_cell_length_a   4.97803174
_cell_length_b   4.97803174
_cell_length_c   7.04000000
_cell_angle_alpha   90.00000000
_cell_angle_beta   90.00000000
_cell_angle_gamma   90.00000000
_symmetry_Int_Tables_number   1
_chemical_formula_structural   Fe3Ni13
_chemical_formula_sum   'Fe3 Ni13'
_cell_volume   174.45683200
_cell_formula_units_Z   1
loop_
 _symmetry_equiv_pos_site_id
 _symmetry_equiv_pos_as_xyz
  1  'x, y, z'
loop_
 _atom_site_type_symbol
 _atom_site_label
 _atom_site_symmetry_multiplicity
 _atom_site_fract_x
 _atom_site_fract_y
 _atom_site_fract_z
 _atom_site_occupancy
  Ni  Ni0  1  0.99980519  0.00000000  0.99939501  1
  Fe  Fe1  1  0.25072252  0.24933992  0.25055035  1
  Ni  Ni2  1  0.99984085  0.00000000  0.50060536  1
  Ni  Ni3  1  0.25000456  0.24988207  0.74973624  1
  Fe  Fe4  1  0.99849305  0.50000000  0.99886607  1
  Fe  Fe5  1  0.25072252  0.75066008  0.25055035  1
  Ni  Ni6  1  0.99986923  0.50000000  0.50055272  1
  Ni  Ni7  1  0.25000456  0.75011793  0.74973624  1
  Ni  Ni8  1  0.50038182  0.00000000  0.99932398  1
  Ni  Ni9  1  0.75008425  0.24987478  0.25029245  1
  Ni  Ni10  1  0.50042193  0.00000000  0.50080219  1
  Ni  Ni11  1  0.74976730  0.24987381  0.74964371  1
  Ni  Ni12  1  0.49971679  0.50000000  0.99945217  1
  Ni  Ni13  1  0.75008425  0.75012522  0.25029245  1
  Ni  Ni14  1  0.50031387  0.50000000  0.50055700  1
  Ni  Ni15  1  0.74976730  0.75012619  0.74964371  1
" 