219,NiFe40_1,-71.8398664938277, 224.150313502621,NiFe40,"# generated using pymatgen
 data_Fe3Ni5
_symmetry_space_group_name_H-M   'P 1'
_cell_length_a   4.97803174
_cell_length_b   4.97803174
_cell_length_c   7.04000000
_cell_angle_alpha   90.00000000
_cell_angle_beta   90.00000000
_cell_angle_gamma   90.00000000
_symmetry_Int_Tables_number   1
_chemical_formula_structural   Fe3Ni5
_chemical_formula_sum   'Fe6 Ni10'
_cell_volume   174.45683200
_cell_formula_units_Z   2
loop_
 _symmetry_equiv_pos_site_id
 _symmetry_equiv_pos_as_xyz
  1  'x, y, z'
loop_
 _atom_site_type_symbol
 _atom_site_label
 _atom_site_symmetry_multiplicity
 _atom_site_fract_x
 _atom_site_fract_y
 _atom_site_fract_z
 _atom_site_occupancy
  Fe  Fe0  1  0.00000000  0.99848982  0.00123562  1
  Ni  Ni1  1  0.24993011  0.24998896  0.25048793  1
  Ni  Ni2  1  0.00000000  0.99972032  0.49936991  1
  Fe  Fe3  1  0.25007264  0.24988227  0.74880178  1
  Fe  Fe4  1  0.00000000  0.50137636  0.00115142  1
  Ni  Ni5  1  0.25010852  0.75002816  0.25083364  1
  Ni  Ni6  1  0.00000000  0.50017467  0.49950358  1
  Ni  Ni7  1  0.25010542  0.74999742  0.74931605  1
  Ni  Ni8  1  0.50000000  0.00045718  0.00048058  1
  Ni  Ni9  1  0.75006989  0.24998896  0.25048793  1
  Fe  Fe10  1  0.50000000  0.99849386  0.49876610  1
  Fe  Fe11  1  0.74992736  0.24988227  0.74880178  1
  Fe  Fe12  1  0.50000000  0.50183918  0.00123437  1
  Ni  Ni13  1  0.74989148  0.75002816  0.25083364  1
  Ni  Ni14  1  0.50000000  0.49965499  0.49937961  1
  Ni  Ni15  1  0.74989458  0.74999742  0.74931605  1
" 