395,NiFe40_6,-71.6697681112393, 225.283095759917,NiFe40,"# generated using pymatgen
 data_Fe3Ni5
_symmetry_space_group_name_H-M   'P 1'
_cell_length_a   4.97803174
_cell_length_b   4.97803174
_cell_length_c   7.04000000
_cell_angle_alpha   90.00000000
_cell_angle_beta   90.00000000
_cell_angle_gamma   90.00000000
_symmetry_Int_Tables_number   1
_chemical_formula_structural   Fe3Ni5
_chemical_formula_sum   'Fe6 Ni10'
_cell_volume   174.45683200
_cell_formula_units_Z   2
loop_
 _symmetry_equiv_pos_site_id
 _symmetry_equiv_pos_as_xyz
  1  'x, y, z'
loop_
 _atom_site_type_symbol
 _atom_site_label
 _atom_site_symmetry_multiplicity
 _atom_site_fract_x
 _atom_site_fract_y
 _atom_site_fract_z
 _atom_site_occupancy
  Ni  Ni0  1  0.00000000  0.00025633  0.00000000  1
  Ni  Ni1  1  0.24965280  0.25000441  0.25007241  1
  Fe  Fe2  1  0.00000000  0.00168092  0.50000000  1
  Ni  Ni3  1  0.24973362  0.24999377  0.74993026  1
  Ni  Ni4  1  0.00000000  0.49984277  0.00000000  1
  Fe  Fe5  1  0.24827170  0.75006179  0.25004582  1
  Ni  Ni6  1  0.00000000  0.50045176  0.50000000  1
  Ni  Ni7  1  0.25058868  0.74997958  0.75006294  1
  Fe  Fe8  1  0.50000000  0.00136241  0.00000000  1
  Ni  Ni9  1  0.75026638  0.24999377  0.25006974  1
  Ni  Ni10  1  0.50000000  0.99947383  0.50000000  1
  Ni  Ni11  1  0.75034720  0.25000441  0.74992759  1
  Fe  Fe12  1  0.50000000  0.49864079  0.00000000  1
  Ni  Ni13  1  0.74941132  0.74997958  0.24993706  1
  Fe  Fe14  1  0.50000000  0.49821211  0.50000000  1
  Fe  Fe15  1  0.75172830  0.75006179  0.74995418  1
" 