249,NiFe40_9,-71.7765411376422, 220.048011127913,NiFe40,"# generated using pymatgen
 data_Fe3Ni5
_symmetry_space_group_name_H-M   'P 1'
_cell_length_a   4.97803174
_cell_length_b   4.97803174
_cell_length_c   7.04000000
_cell_angle_alpha   90.00000000
_cell_angle_beta   90.00000000
_cell_angle_gamma   90.00000000
_symmetry_Int_Tables_number   1
_chemical_formula_structural   Fe3Ni5
_chemical_formula_sum   'Fe6 Ni10'
_cell_volume   174.45683200
_cell_formula_units_Z   2
loop_
 _symmetry_equiv_pos_site_id
 _symmetry_equiv_pos_as_xyz
  1  'x, y, z'
loop_
 _atom_site_type_symbol
 _atom_site_label
 _atom_site_symmetry_multiplicity
 _atom_site_fract_x
 _atom_site_fract_y
 _atom_site_fract_z
 _atom_site_occupancy
  Fe  Fe0  1  0.00000000  0.00122506  0.00000000  1
  Ni  Ni1  1  0.25033670  0.24983328  0.25082845  1
  Fe  Fe2  1  0.00000000  0.00134573  0.50000000  1
  Ni  Ni3  1  0.25026537  0.25046842  0.74930604  1
  Fe  Fe4  1  0.00000000  0.49844197  0.00000000  1
  Fe  Fe5  1  0.25165503  0.74853569  0.25124955  1
  Ni  Ni6  1  0.00000000  0.50009548  0.50000000  1
  Ni  Ni7  1  0.24953058  0.74995835  0.74950793  1
  Fe  Fe8  1  0.50000000  0.00154088  0.00000000  1
  Ni  Ni9  1  0.74973463  0.25046842  0.25069396  1
  Ni  Ni10  1  0.50000000  0.99995911  0.50000000  1
  Ni  Ni11  1  0.74966330  0.24983328  0.74917155  1
  Ni  Ni12  1  0.50000000  0.50020651  0.00000000  1
  Ni  Ni13  1  0.75046942  0.74995835  0.25049207  1
  Ni  Ni14  1  0.50000000  0.49959379  0.50000000  1
  Fe  Fe15  1  0.74834497  0.74853569  0.74875045  1
" 