454,NiFe60_7,-70.8727081701401, 227.647109646542,NiFe60,"# generated using pymatgen
 data_Fe9Ni7
_symmetry_space_group_name_H-M   'P 1'
_cell_length_a   4.97803174
_cell_length_b   4.97803174
_cell_length_c   7.04000000
_cell_angle_alpha   90.00000000
_cell_angle_beta   90.00000000
_cell_angle_gamma   90.00000000
_symmetry_Int_Tables_number   1
_chemical_formula_structural   Fe9Ni7
_chemical_formula_sum   'Fe9 Ni7'
_cell_volume   174.45683200
_cell_formula_units_Z   1
loop_
 _symmetry_equiv_pos_site_id
 _symmetry_equiv_pos_as_xyz
  1  'x, y, z'
loop_
 _atom_site_type_symbol
 _atom_site_label
 _atom_site_symmetry_multiplicity
 _atom_site_fract_x
 _atom_site_fract_y
 _atom_site_fract_z
 _atom_site_occupancy
  Fe  Fe0  1  0.00059846  0.00073609  0.99932065  1
  Ni  Ni1  1  0.25000000  0.25000000  0.25000000  1
  Ni  Ni2  1  0.99980567  0.99977897  0.50020310  1
  Ni  Ni3  1  0.25000000  0.25000000  0.75000000  1
  Fe  Fe4  1  0.00083943  0.49919432  0.99928436  1
  Fe  Fe5  1  0.25000000  0.75000000  0.25000000  1
  Fe  Fe6  1  0.00065896  0.49901851  0.50071422  1
  Ni  Ni7  1  0.25000000  0.75000000  0.75000000  1
  Fe  Fe8  1  0.49934104  0.00098149  0.99928578  1
  Ni  Ni9  1  0.75000000  0.25000000  0.25000000  1
  Fe  Fe10  1  0.49916057  0.00080568  0.50071564  1
  Fe  Fe11  1  0.75000000  0.25000000  0.75000000  1
  Ni  Ni12  1  0.50019433  0.50022103  0.99979690  1
  Fe  Fe13  1  0.75000000  0.75000000  0.25000000  1
  Fe  Fe14  1  0.49940154  0.49926391  0.50067935  1
  Ni  Ni15  1  0.75000000  0.75000000  0.75000000  1
" 