233,NiFe80_11,-69.1603751212929, 181.371026175439,NiFe80,"# generated using pymatgen
 data_Fe3Ni
_symmetry_space_group_name_H-M   'P 1'
_cell_length_a   4.97803174
_cell_length_b   4.97803174
_cell_length_c   7.04000000
_cell_angle_alpha   90.00000000
_cell_angle_beta   90.00000000
_cell_angle_gamma   90.00000000
_symmetry_Int_Tables_number   1
_chemical_formula_structural   Fe3Ni
_chemical_formula_sum   'Fe12 Ni4'
_cell_volume   174.45683200
_cell_formula_units_Z   4
loop_
 _symmetry_equiv_pos_site_id
 _symmetry_equiv_pos_as_xyz
  1  'x, y, z'
loop_
 _atom_site_type_symbol
 _atom_site_label
 _atom_site_symmetry_multiplicity
 _atom_site_fract_x
 _atom_site_fract_y
 _atom_site_fract_z
 _atom_site_occupancy
  Fe  Fe0  1  0.99911727  0.00088273  0.99914024  1
  Fe  Fe1  1  0.24909625  0.24924430  0.25079047  1
  Ni  Ni2  1  0.00010131  0.99989869  0.50038345  1
  Ni  Ni3  1  0.25021009  0.25017682  0.74966970  1
  Fe  Fe4  1  0.99917851  0.49919884  0.99919079  1
  Fe  Fe5  1  0.24939573  0.75060427  0.25069379  1
  Fe  Fe6  1  0.99915955  0.49903710  0.50085540  1
  Fe  Fe7  1  0.24914001  0.75085999  0.74922901  1
  Fe  Fe8  1  0.50080116  0.00082149  0.99919079  1
  Ni  Ni9  1  0.74982800  0.25017200  0.25042697  1
  Fe  Fe10  1  0.50096290  0.00084045  0.50085540  1
  Fe  Fe11  1  0.75100484  0.24899516  0.74911848  1
  Fe  Fe12  1  0.50074242  0.49925758  0.99923145  1
  Fe  Fe13  1  0.75075570  0.75090375  0.25079047  1
  Fe  Fe14  1  0.50068308  0.49931692  0.50076391  1
  Ni  Ni15  1  0.74982318  0.74978991  0.74966970  1
" 