399,NiFe70_10,-69.8482714345419, 206.310005705661,NiFe70,"# generated using pymatgen
 data_Fe11Ni5
_symmetry_space_group_name_H-M   'P 1'
_cell_length_a   4.97803174
_cell_length_b   4.97803174
_cell_length_c   7.04000000
_cell_angle_alpha   90.00000000
_cell_angle_beta   90.00000000
_cell_angle_gamma   90.00000000
_symmetry_Int_Tables_number   1
_chemical_formula_structural   Fe11Ni5
_chemical_formula_sum   'Fe11 Ni5'
_cell_volume   174.45683200
_cell_formula_units_Z   1
loop_
 _symmetry_equiv_pos_site_id
 _symmetry_equiv_pos_as_xyz
  1  'x, y, z'
loop_
 _atom_site_type_symbol
 _atom_site_label
 _atom_site_symmetry_multiplicity
 _atom_site_fract_x
 _atom_site_fract_y
 _atom_site_fract_z
 _atom_site_occupancy
  Ni  Ni0  1  0.00000000  0.00029919  0.00000000  1
  Fe  Fe1  1  0.24781661  0.24913496  0.25074591  1
  Ni  Ni2  1  0.00000000  0.99944557  0.50000000  1
  Fe  Fe3  1  0.24805695  0.24941519  0.74929803  1
  Fe  Fe4  1  0.00000000  0.50198920  0.00000000  1
  Ni  Ni5  1  0.25068027  0.74991099  0.25031476  1
  Ni  Ni6  1  0.00000000  0.50027996  0.50000000  1
  Fe  Fe7  1  0.24706457  0.75085224  0.74931819  1
  Fe  Fe8  1  0.50000000  0.99846235  0.00000000  1
  Fe  Fe9  1  0.75194305  0.24941519  0.25070197  1
  Fe  Fe10  1  0.50000000  0.99857241  0.50000000  1
  Fe  Fe11  1  0.75218339  0.24913496  0.74925409  1
  Fe  Fe12  1  0.50000000  0.50113022  0.00000000  1
  Fe  Fe13  1  0.75293543  0.75085224  0.25068181  1
  Fe  Fe14  1  0.50000000  0.50119433  0.50000000  1
  Ni  Ni15  1  0.74931973  0.74991099  0.74968524  1
" 