133,NiFe60_13,-70.919024877975, 224.936100319606,NiFe60,"# generated using pymatgen
 data_Fe9Ni7
_symmetry_space_group_name_H-M   'P 1'
_cell_length_a   4.97803174
_cell_length_b   4.97803174
_cell_length_c   7.04000000
_cell_angle_alpha   90.00000000
_cell_angle_beta   90.00000000
_cell_angle_gamma   90.00000000
_symmetry_Int_Tables_number   1
_chemical_formula_structural   Fe9Ni7
_chemical_formula_sum   'Fe9 Ni7'
_cell_volume   174.45683200
_cell_formula_units_Z   1
loop_
 _symmetry_equiv_pos_site_id
 _symmetry_equiv_pos_as_xyz
  1  'x, y, z'
loop_
 _atom_site_type_symbol
 _atom_site_label
 _atom_site_symmetry_multiplicity
 _atom_site_fract_x
 _atom_site_fract_y
 _atom_site_fract_z
 _atom_site_occupancy
  Fe  Fe0  1  0.00064485  0.00240428  0.00057520  1
  Ni  Ni1  1  0.25002305  0.24996445  0.25002428  1
  Fe  Fe2  1  0.00094407  0.00256547  0.49937957  1
  Ni  Ni3  1  0.24996790  0.24989503  0.74998315  1
  Ni  Ni4  1  0.00015523  0.50039879  0.00032870  1
  Fe  Fe5  1  0.25005489  0.74864033  0.25013826  1
  Ni  Ni6  1  0.99978223  0.50039812  0.49960223  1
  Fe  Fe7  1  0.25005244  0.74836654  0.74987710  1
  Fe  Fe8  1  0.49935605  0.00236462  0.00058119  1
  Ni  Ni9  1  0.74998786  0.24994030  0.24997704  1
  Ni  Ni10  1  0.50032508  0.99874361  0.49982083  1
  Fe  Fe11  1  0.74991505  0.25180808  0.74994841  1
  Ni  Ni12  1  0.49978327  0.50034484  0.00042558  1
  Fe  Fe13  1  0.74995880  0.74860624  0.25006010  1
  Fe  Fe14  1  0.49905585  0.49663095  0.49928920  1
  Fe  Fe15  1  0.74999340  0.74892835  0.74998915  1
" 