377,NiFe70_13,-70.4034377941307, 186.03647003272,NiFe70,"# generated using pymatgen
 data_Fe11Ni5
_symmetry_space_group_name_H-M   'P 1'
_cell_length_a   4.97803174
_cell_length_b   4.97803174
_cell_length_c   7.04000000
_cell_angle_alpha   90.00000000
_cell_angle_beta   90.00000000
_cell_angle_gamma   90.00000000
_symmetry_Int_Tables_number   1
_chemical_formula_structural   Fe11Ni5
_chemical_formula_sum   'Fe11 Ni5'
_cell_volume   174.45683200
_cell_formula_units_Z   1
loop_
 _symmetry_equiv_pos_site_id
 _symmetry_equiv_pos_as_xyz
  1  'x, y, z'
loop_
 _atom_site_type_symbol
 _atom_site_label
 _atom_site_symmetry_multiplicity
 _atom_site_fract_x
 _atom_site_fract_y
 _atom_site_fract_z
 _atom_site_occupancy
  Fe  Fe0  1  0.00000000  0.00000000  0.00273525  1
  Ni  Ni1  1  0.25020301  0.24979699  0.25036518  1
  Fe  Fe2  1  0.00000000  0.00000000  0.49715707  1
  Fe  Fe3  1  0.25071014  0.24928986  0.74929879  1
  Fe  Fe4  1  0.00000000  0.50000000  0.00270008  1
  Ni  Ni5  1  0.25020301  0.75020301  0.25036518  1
  Fe  Fe6  1  0.00000000  0.50000000  0.49733664  1
  Fe  Fe7  1  0.25071014  0.75071014  0.74929879  1
  Fe  Fe8  1  0.50000000  0.00000000  0.00280569  1
  Ni  Ni9  1  0.74979699  0.24979699  0.25036518  1
  Ni  Ni10  1  0.50000000  0.00000000  0.49871708  1
  Fe  Fe11  1  0.74928986  0.24928986  0.74929879  1
  Fe  Fe12  1  0.50000000  0.50000000  0.00273525  1
  Ni  Ni13  1  0.74979699  0.75020301  0.25036518  1
  Fe  Fe14  1  0.50000000  0.50000000  0.49715707  1
  Fe  Fe15  1  0.74928986  0.75071014  0.74929879  1
" 