432,NiFe80_6,-69.4246019432395, 188.980706863437,NiFe80,"# generated using pymatgen
 data_Fe3Ni
_symmetry_space_group_name_H-M   'P 1'
_cell_length_a   4.97803174
_cell_length_b   4.97803174
_cell_length_c   7.04000000
_cell_angle_alpha   90.00000000
_cell_angle_beta   90.00000000
_cell_angle_gamma   90.00000000
_symmetry_Int_Tables_number   1
_chemical_formula_structural   Fe3Ni
_chemical_formula_sum   'Fe12 Ni4'
_cell_volume   174.45683200
_cell_formula_units_Z   4
loop_
 _symmetry_equiv_pos_site_id
 _symmetry_equiv_pos_as_xyz
  1  'x, y, z'
loop_
 _atom_site_type_symbol
 _atom_site_label
 _atom_site_symmetry_multiplicity
 _atom_site_fract_x
 _atom_site_fract_y
 _atom_site_fract_z
 _atom_site_occupancy
  Fe  Fe0  1  0.00068679  0.00068679  0.99923147  1
  Ni  Ni1  1  0.24981973  0.24981973  0.25031533  1
  Fe  Fe2  1  0.00062875  0.00062875  0.50076282  1
  Ni  Ni3  1  0.24990691  0.24990691  0.74959196  1
  Fe  Fe4  1  0.00073657  0.49924475  0.99919436  1
  Fe  Fe5  1  0.25076390  0.74908677  0.25078252  1
  Fe  Fe6  1  0.00088079  0.49923240  0.50084874  1
  Fe  Fe7  1  0.25096644  0.74910502  0.74918193  1
  Fe  Fe8  1  0.49924475  0.00073657  0.99919436  1
  Fe  Fe9  1  0.74908677  0.25076390  0.25078252  1
  Fe  Fe10  1  0.49923240  0.00088079  0.50084874  1
  Fe  Fe11  1  0.74910502  0.25096644  0.74918193  1
  Fe  Fe12  1  0.49919249  0.49919249  0.99914749  1
  Fe  Fe13  1  0.74938023  0.74938023  0.25070581  1
  Ni  Ni14  1  0.50007846  0.50007846  0.50038033  1
  Ni  Ni15  1  0.75029000  0.75029000  0.74984969  1
" 