366,NiFe50_1,-71.3738480826959, 222.622415003055,NiFe50,"# generated using pymatgen
 data_FeNi
_symmetry_space_group_name_H-M   'P 1'
_cell_length_a   4.97803174
_cell_length_b   4.97803174
_cell_length_c   7.04000000
_cell_angle_alpha   90.00000000
_cell_angle_beta   90.00000000
_cell_angle_gamma   90.00000000
_symmetry_Int_Tables_number   1
_chemical_formula_structural   FeNi
_chemical_formula_sum   'Fe8 Ni8'
_cell_volume   174.45683200
_cell_formula_units_Z   8
loop_
 _symmetry_equiv_pos_site_id
 _symmetry_equiv_pos_as_xyz
  1  'x, y, z'
loop_
 _atom_site_type_symbol
 _atom_site_label
 _atom_site_symmetry_multiplicity
 _atom_site_fract_x
 _atom_site_fract_y
 _atom_site_fract_z
 _atom_site_occupancy
  Fe  Fe0  1  0.00145596  0.00008167  0.00131393  1
  Ni  Ni1  1  0.25000977  0.25010377  0.25071767  1
  Ni  Ni2  1  0.00031642  0.99998922  0.49935453  1
  Ni  Ni3  1  0.25001246  0.25007169  0.74943123  1
  Ni  Ni4  1  0.99952208  0.49995537  0.00050350  1
  Ni  Ni5  1  0.24997718  0.74989342  0.25078883  1
  Fe  Fe6  1  0.00155122  0.49993956  0.49867599  1
  Fe  Fe7  1  0.24985512  0.74980814  0.74867127  1
  Fe  Fe8  1  0.49867514  0.00007978  0.00122874  1
  Fe  Fe9  1  0.75011418  0.25006120  0.25129620  1
  Ni  Ni10  1  0.49977951  0.00000152  0.49948276  1
  Fe  Fe11  1  0.75012608  0.25008046  0.74870053  1
  Fe  Fe12  1  0.49818201  0.49991580  0.00131399  1
  Ni  Ni13  1  0.75000131  0.75011220  0.25039842  1
  Ni  Ni14  1  0.50029870  0.49997855  0.49935537  1
  Fe  Fe15  1  0.75012285  0.74992765  0.74876703  1
" 