183,NiFe30_9,-71.9121584809018, 217.154808456361,NiFe30,"# generated using pymatgen
 data_FeNi3
_symmetry_space_group_name_H-M   'P 1'
_cell_length_a   4.97803174
_cell_length_b   4.97803174
_cell_length_c   7.04000000
_cell_angle_alpha   90.00000000
_cell_angle_beta   90.00000000
_cell_angle_gamma   90.00000000
_symmetry_Int_Tables_number   1
_chemical_formula_structural   FeNi3
_chemical_formula_sum   'Fe4 Ni12'
_cell_volume   174.45683200
_cell_formula_units_Z   4
loop_
 _symmetry_equiv_pos_site_id
 _symmetry_equiv_pos_as_xyz
  1  'x, y, z'
loop_
 _atom_site_type_symbol
 _atom_site_label
 _atom_site_symmetry_multiplicity
 _atom_site_fract_x
 _atom_site_fract_y
 _atom_site_fract_z
 _atom_site_occupancy
  Fe  Fe0  1  0.99867766  0.00000000  0.00000000  1
  Ni  Ni1  1  0.25000000  0.24954888  0.25048245  1
  Ni  Ni2  1  0.99974609  0.00000000  0.50000000  1
  Fe  Fe3  1  0.25000000  0.25161294  0.74882417  1
  Ni  Ni4  1  0.99975600  0.50000000  0.00000000  1
  Fe  Fe5  1  0.25000000  0.74838706  0.25117583  1
  Ni  Ni6  1  0.99978227  0.50000000  0.50000000  1
  Ni  Ni7  1  0.25000000  0.75045112  0.74951755  1
  Fe  Fe8  1  0.50132234  0.00000000  0.00000000  1
  Ni  Ni9  1  0.75000000  0.25027975  0.25066574  1
  Ni  Ni10  1  0.50025391  0.00000000  0.50000000  1
  Ni  Ni11  1  0.75000000  0.25035769  0.74920181  1
  Ni  Ni12  1  0.50024400  0.50000000  0.00000000  1
  Ni  Ni13  1  0.75000000  0.74964231  0.25079819  1
  Ni  Ni14  1  0.50021773  0.50000000  0.50000000  1
  Ni  Ni15  1  0.75000000  0.74972025  0.74933426  1
" 