101,NiFe80_3,-69.2227477444463, 196.845256056373,NiFe80,"# generated using pymatgen
 data_Fe3Ni
_symmetry_space_group_name_H-M   'P 1'
_cell_length_a   4.97803174
_cell_length_b   4.97803174
_cell_length_c   7.04000000
_cell_angle_alpha   90.00000000
_cell_angle_beta   90.00000000
_cell_angle_gamma   90.00000000
_symmetry_Int_Tables_number   1
_chemical_formula_structural   Fe3Ni
_chemical_formula_sum   'Fe12 Ni4'
_cell_volume   174.45683200
_cell_formula_units_Z   4
loop_
 _symmetry_equiv_pos_site_id
 _symmetry_equiv_pos_as_xyz
  1  'x, y, z'
loop_
 _atom_site_type_symbol
 _atom_site_label
 _atom_site_symmetry_multiplicity
 _atom_site_fract_x
 _atom_site_fract_y
 _atom_site_fract_z
 _atom_site_occupancy
  Fe  Fe0  1  0.99935547  0.99917653  0.00073179  1
  Fe  Fe1  1  0.25068779  0.25057948  0.24931335  1
  Fe  Fe2  1  0.99911413  0.99930881  0.49925350  1
  Fe  Fe3  1  0.25074675  0.25062184  0.75070431  1
  Ni  Ni4  1  0.99988533  0.49982288  0.00025678  1
  Fe  Fe5  1  0.25095228  0.74928351  0.24923061  1
  Fe  Fe6  1  0.99932279  0.50069655  0.49925273  1
  Fe  Fe7  1  0.25080270  0.74930711  0.75074390  1
  Fe  Fe8  1  0.50072523  0.99915389  0.00078357  1
  Fe  Fe9  1  0.74916060  0.25078055  0.24928573  1
  Ni  Ni10  1  0.49974872  0.00027950  0.49975299  1
  Fe  Fe11  1  0.74917802  0.25062169  0.75068829  1
  Ni  Ni12  1  0.50027235  0.49991512  0.00044207  1
  Ni  Ni13  1  0.75010286  0.75013271  0.24966055  1
  Fe  Fe14  1  0.50082581  0.50101380  0.49916163  1
  Fe  Fe15  1  0.74911916  0.74930603  0.75073819  1
" 