256,NiFe20_1,-71.9849106766571, 209.553091044295,NiFe20,"# generated using pymatgen
 data_Fe3Ni13
_symmetry_space_group_name_H-M   'P 1'
_cell_length_a   4.97803174
_cell_length_b   4.97803174
_cell_length_c   7.04000000
_cell_angle_alpha   90.00000000
_cell_angle_beta   90.00000000
_cell_angle_gamma   90.00000000
_symmetry_Int_Tables_number   1
_chemical_formula_structural   Fe3Ni13
_chemical_formula_sum   'Fe3 Ni13'
_cell_volume   174.45683200
_cell_formula_units_Z   1
loop_
 _symmetry_equiv_pos_site_id
 _symmetry_equiv_pos_as_xyz
  1  'x, y, z'
loop_
 _atom_site_type_symbol
 _atom_site_label
 _atom_site_symmetry_multiplicity
 _atom_site_fract_x
 _atom_site_fract_y
 _atom_site_fract_z
 _atom_site_occupancy
  Ni  Ni0  1  0.00010543  0.99999766  0.99972067  1
  Fe  Fe1  1  0.24843863  0.25156137  0.25000000  1
  Ni  Ni2  1  0.00010543  0.99999766  0.50027933  1
  Ni  Ni3  1  0.24985602  0.25014398  0.75000000  1
  Ni  Ni4  1  0.99974894  0.50025106  0.99957510  1
  Ni  Ni5  1  0.24987594  0.75032280  0.25000000  1
  Ni  Ni6  1  0.99974894  0.50025106  0.50042490  1
  Ni  Ni7  1  0.24987796  0.74965545  0.75000000  1
  Fe  Fe8  1  0.50073446  0.99926554  0.99938585  1
  Ni  Ni9  1  0.74967720  0.25012406  0.25000000  1
  Fe  Fe10  1  0.50073446  0.99926554  0.50061415  1
  Ni  Ni11  1  0.75034455  0.25012204  0.75000000  1
  Ni  Ni12  1  0.50000234  0.49989457  0.99972067  1
  Ni  Ni13  1  0.75034236  0.74965764  0.25000000  1
  Ni  Ni14  1  0.50000234  0.49989457  0.50027933  1
  Ni  Ni15  1  0.75040500  0.74959500  0.75000000  1
" 