146,NiFe80_4,-69.1603751212929, 181.371026176956,NiFe80,"# generated using pymatgen
 data_Fe3Ni
_symmetry_space_group_name_H-M   'P 1'
_cell_length_a   4.97803174
_cell_length_b   4.97803174
_cell_length_c   7.04000000
_cell_angle_alpha   90.00000000
_cell_angle_beta   90.00000000
_cell_angle_gamma   90.00000000
_symmetry_Int_Tables_number   1
_chemical_formula_structural   Fe3Ni
_chemical_formula_sum   'Fe12 Ni4'
_cell_volume   174.45683200
_cell_formula_units_Z   4
loop_
 _symmetry_equiv_pos_site_id
 _symmetry_equiv_pos_as_xyz
  1  'x, y, z'
loop_
 _atom_site_type_symbol
 _atom_site_label
 _atom_site_symmetry_multiplicity
 _atom_site_fract_x
 _atom_site_fract_y
 _atom_site_fract_z
 _atom_site_occupancy
  Fe  Fe0  1  0.00075570  0.99909625  0.00079047  1
  Fe  Fe1  1  0.24915955  0.25096290  0.25085540  1
  Ni  Ni2  1  0.99982318  0.00021009  0.49966970  1
  Fe  Fe3  1  0.24917851  0.25080116  0.74919079  1
  Ni  Ni4  1  0.99982800  0.49982800  0.00042697  1
  Ni  Ni5  1  0.25010131  0.75010131  0.25038345  1
  Fe  Fe6  1  0.00100484  0.50100484  0.49911848  1
  Fe  Fe7  1  0.24911727  0.74911727  0.74914024  1
  Fe  Fe8  1  0.49939573  0.99939573  0.00069379  1
  Fe  Fe9  1  0.75068308  0.25068308  0.25076391  1
  Fe  Fe10  1  0.49914001  0.99914001  0.49922901  1
  Fe  Fe11  1  0.75074242  0.25074242  0.74923145  1
  Fe  Fe12  1  0.49909625  0.50075570  0.00079047  1
  Fe  Fe13  1  0.75096290  0.74915955  0.25085540  1
  Ni  Ni14  1  0.50021009  0.49982318  0.49966970  1
  Fe  Fe15  1  0.75080116  0.74917851  0.74919079  1
" 