11,NiFe40_2,-72.0482625127986, 221.336358407221,NiFe40,"# generated using pymatgen
 data_Fe3Ni5
_symmetry_space_group_name_H-M   'P 1'
_cell_length_a   4.97803174
_cell_length_b   4.97803174
_cell_length_c   7.04000000
_cell_angle_alpha   90.00000000
_cell_angle_beta   90.00000000
_cell_angle_gamma   90.00000000
_symmetry_Int_Tables_number   1
_chemical_formula_structural   Fe3Ni5
_chemical_formula_sum   'Fe6 Ni10'
_cell_volume   174.45683200
_cell_formula_units_Z   2
loop_
 _symmetry_equiv_pos_site_id
 _symmetry_equiv_pos_as_xyz
  1  'x, y, z'
loop_
 _atom_site_type_symbol
 _atom_site_label
 _atom_site_symmetry_multiplicity
 _atom_site_fract_x
 _atom_site_fract_y
 _atom_site_fract_z
 _atom_site_occupancy
  Ni  Ni0  1  0.99996042  0.00025894  0.00067704  1
  Ni  Ni1  1  0.25073341  0.24991290  0.24967861  1
  Fe  Fe2  1  0.00078790  0.99929804  0.49826064  1
  Fe  Fe3  1  0.25236668  0.24908738  0.75058808  1
  Fe  Fe4  1  0.00073288  0.50081162  0.00178553  1
  Ni  Ni5  1  0.25068254  0.75023024  0.24960673  1
  Fe  Fe6  1  0.00078684  0.50062908  0.49825647  1
  Ni  Ni7  1  0.24936757  0.74974717  0.75030523  1
  Ni  Ni8  1  0.49958848  0.99971552  0.00128891  1
  Ni  Ni9  1  0.74981157  0.24993157  0.24977910  1
  Ni  Ni10  1  0.49998787  0.99966546  0.49873253  1
  Fe  Fe11  1  0.74807806  0.24936689  0.75056529  1
  Ni  Ni12  1  0.50002675  0.50015116  0.00111329  1
  Ni  Ni13  1  0.74973885  0.75025078  0.24961842  1
  Ni  Ni14  1  0.50009915  0.50014899  0.49908375  1
  Fe  Fe15  1  0.74725102  0.75079426  0.75066039  1
" 