435,NiFe60_9,-70.7999262156495, 225.791034433772,NiFe60,"# generated using pymatgen
 data_Fe9Ni7
_symmetry_space_group_name_H-M   'P 1'
_cell_length_a   4.97803174
_cell_length_b   4.97803174
_cell_length_c   7.04000000
_cell_angle_alpha   90.00000000
_cell_angle_beta   90.00000000
_cell_angle_gamma   90.00000000
_symmetry_Int_Tables_number   1
_chemical_formula_structural   Fe9Ni7
_chemical_formula_sum   'Fe9 Ni7'
_cell_volume   174.45683200
_cell_formula_units_Z   1
loop_
 _symmetry_equiv_pos_site_id
 _symmetry_equiv_pos_as_xyz
  1  'x, y, z'
loop_
 _atom_site_type_symbol
 _atom_site_label
 _atom_site_symmetry_multiplicity
 _atom_site_fract_x
 _atom_site_fract_y
 _atom_site_fract_z
 _atom_site_occupancy
  Fe  Fe0  1  0.00104509  0.99920058  0.99937153  1
  Ni  Ni1  1  0.24992278  0.24933037  0.24998962  1
  Fe  Fe2  1  0.00070105  0.99926527  0.50058369  1
  Fe  Fe3  1  0.25006926  0.25161273  0.75014189  1
  Ni  Ni4  1  0.99973758  0.49987730  0.99960267  1
  Fe  Fe5  1  0.25008242  0.74786943  0.24986052  1
  Ni  Ni6  1  0.00015618  0.49988440  0.50032985  1
  Ni  Ni7  1  0.25001859  0.75031825  0.75003146  1
  Ni  Ni8  1  0.50041226  0.00039054  0.99981778  1
  Fe  Fe9  1  0.74992127  0.25144906  0.24996829  1
  Fe  Fe10  1  0.49929888  0.99928014  0.50058937  1
  Fe  Fe11  1  0.74994401  0.25167187  0.75006677  1
  Fe  Fe12  1  0.49894970  0.50103440  0.99928144  1
  Fe  Fe13  1  0.74996314  0.74854663  0.24997046  1
  Ni  Ni14  1  0.49977532  0.49988933  0.50042504  1
  Ni  Ni15  1  0.75000246  0.75037969  0.74996964  1
" 