415,NiFe50_13,-71.4027075050456, 229.400364998835,NiFe50,"# generated using pymatgen
 data_FeNi
_symmetry_space_group_name_H-M   'P 1'
_cell_length_a   4.97803174
_cell_length_b   4.97803174
_cell_length_c   7.04000000
_cell_angle_alpha   90.00000000
_cell_angle_beta   90.00000000
_cell_angle_gamma   90.00000000
_symmetry_Int_Tables_number   1
_chemical_formula_structural   FeNi
_chemical_formula_sum   'Fe8 Ni8'
_cell_volume   174.45683200
_cell_formula_units_Z   8
loop_
 _symmetry_equiv_pos_site_id
 _symmetry_equiv_pos_as_xyz
  1  'x, y, z'
loop_
 _atom_site_type_symbol
 _atom_site_label
 _atom_site_symmetry_multiplicity
 _atom_site_fract_x
 _atom_site_fract_y
 _atom_site_fract_z
 _atom_site_occupancy
  Fe  Fe0  1  0.00170257  0.99938930  0.00062634  1
  Ni  Ni1  1  0.24995849  0.25014566  0.25046165  1
  Fe  Fe2  1  0.00206325  0.99936581  0.49933095  1
  Ni  Ni3  1  0.24965154  0.25011980  0.74961242  1
  Fe  Fe4  1  0.00239210  0.50077113  0.00071509  1
  Ni  Ni5  1  0.25114370  0.74974749  0.25050743  1
  Fe  Fe6  1  0.00200909  0.50071811  0.49929085  1
  Ni  Ni7  1  0.24988241  0.74971636  0.74949970  1
  Fe  Fe8  1  0.49739700  0.99915181  0.00060858  1
  Fe  Fe9  1  0.74789485  0.25078814  0.25057683  1
  Ni  Ni10  1  0.50006138  0.99991426  0.49969784  1
  Fe  Fe11  1  0.74778286  0.25058079  0.74945296  1
  Ni  Ni12  1  0.50010458  0.49980792  0.00034188  1
  Ni  Ni13  1  0.75012698  0.75022270  0.25017854  1
  Ni  Ni14  1  0.50002781  0.50022585  0.49963554  1
  Fe  Fe15  1  0.74780138  0.74933486  0.74946339  1
" 