148,NiFe20_2,-71.9740742715821, 209.916306523208,NiFe20,"# generated using pymatgen
 data_Fe3Ni13
_symmetry_space_group_name_H-M   'P 1'
_cell_length_a   4.97803174
_cell_length_b   4.97803174
_cell_length_c   7.04000000
_cell_angle_alpha   90.00000000
_cell_angle_beta   90.00000000
_cell_angle_gamma   90.00000000
_symmetry_Int_Tables_number   1
_chemical_formula_structural   Fe3Ni13
_chemical_formula_sum   'Fe3 Ni13'
_cell_volume   174.45683200
_cell_formula_units_Z   1
loop_
 _symmetry_equiv_pos_site_id
 _symmetry_equiv_pos_as_xyz
  1  'x, y, z'
loop_
 _atom_site_type_symbol
 _atom_site_label
 _atom_site_symmetry_multiplicity
 _atom_site_fract_x
 _atom_site_fract_y
 _atom_site_fract_z
 _atom_site_occupancy
  Ni  Ni0  1  0.00031387  0.00000000  0.99944300  1
  Ni  Ni1  1  0.25008425  0.25012522  0.24970755  1
  Ni  Ni2  1  0.99971679  0.00000000  0.50054783  1
  Ni  Ni3  1  0.24976730  0.25012619  0.75035629  1
  Ni  Ni4  1  0.00042193  0.50000000  0.99919781  1
  Ni  Ni5  1  0.25008425  0.74987478  0.24970755  1
  Ni  Ni6  1  0.00038182  0.50000000  0.50067602  1
  Ni  Ni7  1  0.24976730  0.74987381  0.75035629  1
  Ni  Ni8  1  0.49986923  0.00000000  0.99944728  1
  Fe  Fe9  1  0.75072252  0.25066008  0.24944965  1
  Fe  Fe10  1  0.49849305  0.00000000  0.50113393  1
  Ni  Ni11  1  0.75000456  0.25011793  0.75026376  1
  Ni  Ni12  1  0.49984085  0.50000000  0.99939464  1
  Fe  Fe13  1  0.75072252  0.74933992  0.24944965  1
  Ni  Ni14  1  0.49980519  0.50000000  0.50060499  1
  Ni  Ni15  1  0.75000456  0.74988207  0.75026376  1
" 