273,NiFe60_1,-70.9176017803434, 211.322403136788,NiFe60,"# generated using pymatgen
 data_Fe9Ni7
_symmetry_space_group_name_H-M   'P 1'
_cell_length_a   4.97803174
_cell_length_b   4.97803174
_cell_length_c   7.04000000
_cell_angle_alpha   90.00000000
_cell_angle_beta   90.00000000
_cell_angle_gamma   90.00000000
_symmetry_Int_Tables_number   1
_chemical_formula_structural   Fe9Ni7
_chemical_formula_sum   'Fe9 Ni7'
_cell_volume   174.45683200
_cell_formula_units_Z   1
loop_
 _symmetry_equiv_pos_site_id
 _symmetry_equiv_pos_as_xyz
  1  'x, y, z'
loop_
 _atom_site_type_symbol
 _atom_site_label
 _atom_site_symmetry_multiplicity
 _atom_site_fract_x
 _atom_site_fract_y
 _atom_site_fract_z
 _atom_site_occupancy
  Fe  Fe0  1  0.99810283  0.00000000  0.00145801  1
  Fe  Fe1  1  0.24934261  0.25059300  0.25060302  1
  Ni  Ni2  1  0.00028964  0.00000000  0.49924561  1
  Fe  Fe3  1  0.24939832  0.25067976  0.74936562  1
  Ni  Ni4  1  0.00036653  0.50000000  0.00085102  1
  Fe  Fe5  1  0.24934261  0.74940700  0.25060302  1
  Ni  Ni6  1  0.99963309  0.50000000  0.49930750  1
  Fe  Fe7  1  0.24939832  0.74932024  0.74936562  1
  Ni  Ni8  1  0.49935111  0.00000000  0.00040852  1
  Ni  Ni9  1  0.74996424  0.25010390  0.25028191  1
  Fe  Fe10  1  0.50151563  0.00000000  0.49867356  1
  Fe  Fe11  1  0.75072487  0.25064678  0.74941417  1
  Fe  Fe12  1  0.50167428  0.50000000  0.00139204  1
  Ni  Ni13  1  0.74996424  0.74989610  0.25028191  1
  Ni  Ni14  1  0.50020682  0.50000000  0.49933428  1
  Fe  Fe15  1  0.75072487  0.74935322  0.74941417  1
" 