388,NiFe70_8,-70.2103627051161, 193.740989927778,NiFe70,"# generated using pymatgen
 data_Fe11Ni5
_symmetry_space_group_name_H-M   'P 1'
_cell_length_a   4.97803174
_cell_length_b   4.97803174
_cell_length_c   7.04000000
_cell_angle_alpha   90.00000000
_cell_angle_beta   90.00000000
_cell_angle_gamma   90.00000000
_symmetry_Int_Tables_number   1
_chemical_formula_structural   Fe11Ni5
_chemical_formula_sum   'Fe11 Ni5'
_cell_volume   174.45683200
_cell_formula_units_Z   1
loop_
 _symmetry_equiv_pos_site_id
 _symmetry_equiv_pos_as_xyz
  1  'x, y, z'
loop_
 _atom_site_type_symbol
 _atom_site_label
 _atom_site_symmetry_multiplicity
 _atom_site_fract_x
 _atom_site_fract_y
 _atom_site_fract_z
 _atom_site_occupancy
  Ni  Ni0  1  0.99998577  0.00013701  0.00109951  1
  Ni  Ni1  1  0.24952997  0.25000000  0.24918810  1
  Fe  Fe2  1  0.00070962  0.00064922  0.49786853  1
  Fe  Fe3  1  0.24855157  0.25000000  0.75141201  1
  Ni  Ni4  1  0.99998577  0.49986299  0.00109951  1
  Ni  Ni5  1  0.25008526  0.75000000  0.24932316  1
  Fe  Fe6  1  0.00070962  0.49935078  0.49786853  1
  Fe  Fe7  1  0.24859315  0.75000000  0.75139489  1
  Fe  Fe8  1  0.49933232  0.00062571  0.00205481  1
  Ni  Ni9  1  0.75027902  0.25000000  0.24938434  1
  Fe  Fe10  1  0.49940844  0.00065181  0.49798560  1
  Fe  Fe11  1  0.75132912  0.25000000  0.75134968  1
  Fe  Fe12  1  0.49933232  0.49937429  0.00205481  1
  Fe  Fe13  1  0.75146914  0.75000000  0.24861168  1
  Fe  Fe14  1  0.49940844  0.49934819  0.49798560  1
  Fe  Fe15  1  0.75129046  0.75000000  0.75131926  1
" 