8,NiFe80_8,-69.2227477444464, 196.845256055932,NiFe80,"# generated using pymatgen
 data_Fe3Ni
_symmetry_space_group_name_H-M   'P 1'
_cell_length_a   4.97803174
_cell_length_b   4.97803174
_cell_length_c   7.04000000
_cell_angle_alpha   90.00000000
_cell_angle_beta   90.00000000
_cell_angle_gamma   90.00000000
_symmetry_Int_Tables_number   1
_chemical_formula_structural   Fe3Ni
_chemical_formula_sum   'Fe12 Ni4'
_cell_volume   174.45683200
_cell_formula_units_Z   4
loop_
 _symmetry_equiv_pos_site_id
 _symmetry_equiv_pos_as_xyz
  1  'x, y, z'
loop_
 _atom_site_type_symbol
 _atom_site_label
 _atom_site_symmetry_multiplicity
 _atom_site_fract_x
 _atom_site_fract_y
 _atom_site_fract_z
 _atom_site_occupancy
  Fe  Fe0  1  0.99930711  0.00080270  0.99925610  1
  Ni  Ni1  1  0.25027950  0.24974872  0.25024701  1
  Fe  Fe2  1  0.99928351  0.00095228  0.50076939  1
  Fe  Fe3  1  0.24915389  0.25072523  0.74921643  1
  Fe  Fe4  1  0.99930603  0.49911916  0.99926181  1
  Fe  Fe5  1  0.24930881  0.74911413  0.25074650  1
  Ni  Ni6  1  0.00013271  0.50010286  0.50033945  1
  Fe  Fe7  1  0.24917653  0.74935547  0.74926821  1
  Fe  Fe8  1  0.50062184  0.00074675  0.99929569  1
  Fe  Fe9  1  0.75101380  0.25082581  0.25083837  1
  Fe  Fe10  1  0.50057948  0.00068779  0.50068665  1
  Ni  Ni11  1  0.74991512  0.25027235  0.74955793  1
  Fe  Fe12  1  0.50062169  0.49917802  0.99931171  1
  Fe  Fe13  1  0.75069655  0.74932279  0.25074727  1
  Fe  Fe14  1  0.50078055  0.49916060  0.50071427  1
  Ni  Ni15  1  0.74982288  0.74988533  0.74974322  1
" 