216,NiFe50_11,-71.3020291078624, 229.533664678786,NiFe50,"# generated using pymatgen
 data_FeNi
_symmetry_space_group_name_H-M   'P 1'
_cell_length_a   4.97803174
_cell_length_b   4.97803174
_cell_length_c   7.04000000
_cell_angle_alpha   90.00000000
_cell_angle_beta   90.00000000
_cell_angle_gamma   90.00000000
_symmetry_Int_Tables_number   1
_chemical_formula_structural   FeNi
_chemical_formula_sum   'Fe8 Ni8'
_cell_volume   174.45683200
_cell_formula_units_Z   8
loop_
 _symmetry_equiv_pos_site_id
 _symmetry_equiv_pos_as_xyz
  1  'x, y, z'
loop_
 _atom_site_type_symbol
 _atom_site_label
 _atom_site_symmetry_multiplicity
 _atom_site_fract_x
 _atom_site_fract_y
 _atom_site_fract_z
 _atom_site_occupancy
  Fe  Fe0  1  0.00000000  0.99696756  0.00000000  1
  Fe  Fe1  1  0.25126740  0.24864593  0.24986831  1
  Ni  Ni2  1  0.00000000  0.00069075  0.50000000  1
  Fe  Fe3  1  0.25126740  0.24864593  0.75013169  1
  Fe  Fe4  1  0.00000000  0.50234466  0.00000000  1
  Ni  Ni5  1  0.25036366  0.75006323  0.25013062  1
  Fe  Fe6  1  0.00000000  0.50309970  0.50000000  1
  Ni  Ni7  1  0.25036366  0.75006323  0.74986938  1
  Ni  Ni8  1  0.50000000  0.99867826  0.00000000  1
  Fe  Fe9  1  0.74873260  0.24864593  0.24986831  1
  Ni  Ni10  1  0.50000000  0.00031747  0.50000000  1
  Fe  Fe11  1  0.74873260  0.24864593  0.75013169  1
  Ni  Ni12  1  0.50000000  0.50007335  0.00000000  1
  Ni  Ni13  1  0.74963634  0.75006323  0.25013062  1
  Fe  Fe14  1  0.50000000  0.50299162  0.50000000  1
  Ni  Ni15  1  0.74963634  0.75006323  0.74986938  1
" 