188,NiFe60_11,-70.8447082778548, 199.039847333945,NiFe60,"# generated using pymatgen
 data_Fe9Ni7
_symmetry_space_group_name_H-M   'P 1'
_cell_length_a   4.97803174
_cell_length_b   4.97803174
_cell_length_c   7.04000000
_cell_angle_alpha   90.00000000
_cell_angle_beta   90.00000000
_cell_angle_gamma   90.00000000
_symmetry_Int_Tables_number   1
_chemical_formula_structural   Fe9Ni7
_chemical_formula_sum   'Fe9 Ni7'
_cell_volume   174.45683200
_cell_formula_units_Z   1
loop_
 _symmetry_equiv_pos_site_id
 _symmetry_equiv_pos_as_xyz
  1  'x, y, z'
loop_
 _atom_site_type_symbol
 _atom_site_label
 _atom_site_symmetry_multiplicity
 _atom_site_fract_x
 _atom_site_fract_y
 _atom_site_fract_z
 _atom_site_occupancy
  Ni  Ni0  1  0.00024694  0.99975306  0.00093935  1
  Ni  Ni1  1  0.25000000  0.25000000  0.25000000  1
  Fe  Fe2  1  0.99911553  0.00088447  0.49788451  1
  Fe  Fe3  1  0.25000000  0.25000000  0.75000000  1
  Fe  Fe4  1  0.99911553  0.49911553  0.00211549  1
  Fe  Fe5  1  0.25000000  0.75000000  0.25000000  1
  Ni  Ni6  1  0.00024694  0.50024694  0.49906065  1
  Fe  Fe7  1  0.25000000  0.75000000  0.75000000  1
  Fe  Fe8  1  0.50088447  0.00088447  0.00211549  1
  Ni  Ni9  1  0.75000000  0.25000000  0.25000000  1
  Ni  Ni10  1  0.49975306  0.99975306  0.49906065  1
  Fe  Fe11  1  0.75000000  0.25000000  0.75000000  1
  Ni  Ni12  1  0.49975306  0.50024694  0.00093935  1
  Ni  Ni13  1  0.75000000  0.75000000  0.25000000  1
  Fe  Fe14  1  0.50088447  0.49911553  0.49788451  1
  Fe  Fe15  1  0.75000000  0.75000000  0.75000000  1
" 