305,NiFe70_3,-69.7375924600462, 199.791220719301,NiFe70,"# generated using pymatgen
 data_Fe11Ni5
_symmetry_space_group_name_H-M   'P 1'
_cell_length_a   4.97803174
_cell_length_b   4.97803174
_cell_length_c   7.04000000
_cell_angle_alpha   90.00000000
_cell_angle_beta   90.00000000
_cell_angle_gamma   90.00000000
_symmetry_Int_Tables_number   1
_chemical_formula_structural   Fe11Ni5
_chemical_formula_sum   'Fe11 Ni5'
_cell_volume   174.45683200
_cell_formula_units_Z   1
loop_
 _symmetry_equiv_pos_site_id
 _symmetry_equiv_pos_as_xyz
  1  'x, y, z'
loop_
 _atom_site_type_symbol
 _atom_site_label
 _atom_site_symmetry_multiplicity
 _atom_site_fract_x
 _atom_site_fract_y
 _atom_site_fract_z
 _atom_site_occupancy
  Fe  Fe0  1  0.00000000  0.00000000  0.00000000  1
  Fe  Fe1  1  0.25105964  0.25082603  0.25083259  1
  Fe  Fe2  1  0.00000000  0.00000000  0.50000000  1
  Fe  Fe3  1  0.25082603  0.25105964  0.74916741  1
  Fe  Fe4  1  0.00000000  0.50000000  0.00000000  1
  Fe  Fe5  1  0.25074424  0.74925576  0.25078632  1
  Ni  Ni6  1  0.00000000  0.50000000  0.50000000  1
  Ni  Ni7  1  0.24972560  0.75027440  0.74979835  1
  Fe  Fe8  1  0.50000000  0.00000000  0.00000000  1
  Ni  Ni9  1  0.75027440  0.24972560  0.25020165  1
  Ni  Ni10  1  0.50000000  0.00000000  0.50000000  1
  Fe  Fe11  1  0.74925576  0.25074424  0.74921368  1
  Ni  Ni12  1  0.50000000  0.50000000  0.00000000  1
  Fe  Fe13  1  0.74917397  0.74894036  0.25083259  1
  Fe  Fe14  1  0.50000000  0.50000000  0.50000000  1
  Fe  Fe15  1  0.74894036  0.74917397  0.74916741  1
" 