194,NiFe40_12,-71.8498985004547, 226.369751725067,NiFe40,"# generated using pymatgen
 data_Fe3Ni5
_symmetry_space_group_name_H-M   'P 1'
_cell_length_a   4.97803174
_cell_length_b   4.97803174
_cell_length_c   7.04000000
_cell_angle_alpha   90.00000000
_cell_angle_beta   90.00000000
_cell_angle_gamma   90.00000000
_symmetry_Int_Tables_number   1
_chemical_formula_structural   Fe3Ni5
_chemical_formula_sum   'Fe6 Ni10'
_cell_volume   174.45683200
_cell_formula_units_Z   2
loop_
 _symmetry_equiv_pos_site_id
 _symmetry_equiv_pos_as_xyz
  1  'x, y, z'
loop_
 _atom_site_type_symbol
 _atom_site_label
 _atom_site_symmetry_multiplicity
 _atom_site_fract_x
 _atom_site_fract_y
 _atom_site_fract_z
 _atom_site_occupancy
  Ni  Ni0  1  0.00000000  0.00000003  0.00000000  1
  Ni  Ni1  1  0.24994571  0.25005132  0.24950624  1
  Fe  Fe2  1  0.00000000  0.99879281  0.50000000  1
  Fe  Fe3  1  0.25001966  0.25143985  0.75124174  1
  Ni  Ni4  1  0.00000000  0.50047114  0.00000000  1
  Ni  Ni5  1  0.25008273  0.74956346  0.24931113  1
  Fe  Fe6  1  0.00000000  0.50151218  0.50000000  1
  Ni  Ni7  1  0.25010091  0.75014414  0.75081445  1
  Fe  Fe8  1  0.50000000  0.99871462  0.00000000  1
  Fe  Fe9  1  0.74998034  0.25143985  0.24875826  1
  Fe  Fe10  1  0.50000000  0.99841593  0.50000000  1
  Ni  Ni11  1  0.75005429  0.25005132  0.75049376  1
  Ni  Ni12  1  0.50000000  0.49991943  0.00000000  1
  Ni  Ni13  1  0.74989909  0.75014414  0.24918555  1
  Ni  Ni14  1  0.50000000  0.49977630  0.50000000  1
  Ni  Ni15  1  0.74991727  0.74956346  0.75068887  1
" 