51,NiFe10_13,-71.5259856845376, 190.545120615623,NiFe10,"# generated using pymatgen
 data_FeNi15
_symmetry_space_group_name_H-M   'P 1'
_cell_length_a   4.97803174
_cell_length_b   4.97803174
_cell_length_c   7.04000000
_cell_angle_alpha   90.00000000
_cell_angle_beta   90.00000000
_cell_angle_gamma   90.00000000
_symmetry_Int_Tables_number   1
_chemical_formula_structural   FeNi15
_chemical_formula_sum   'Fe1 Ni15'
_cell_volume   174.45683200
_cell_formula_units_Z   1
loop_
 _symmetry_equiv_pos_site_id
 _symmetry_equiv_pos_as_xyz
  1  'x, y, z'
loop_
 _atom_site_type_symbol
 _atom_site_label
 _atom_site_symmetry_multiplicity
 _atom_site_fract_x
 _atom_site_fract_y
 _atom_site_fract_z
 _atom_site_occupancy
  Ni  Ni0  1  0.00014220  0.99985780  0.00030569  1
  Ni  Ni1  1  0.25000000  0.25000000  0.25000000  1
  Ni  Ni2  1  0.00014220  0.99985780  0.49969431  1
  Ni  Ni3  1  0.25000000  0.25000000  0.75000000  1
  Ni  Ni4  1  0.00014220  0.50014220  0.00030569  1
  Ni  Ni5  1  0.25000000  0.75000000  0.25000000  1
  Ni  Ni6  1  0.00014220  0.50014220  0.49969431  1
  Ni  Ni7  1  0.25000000  0.75000000  0.75000000  1
  Ni  Ni8  1  0.49985780  0.99985780  0.00030569  1
  Ni  Ni9  1  0.75000000  0.25000000  0.25000000  1
  Ni  Ni10  1  0.49985780  0.99985780  0.49969431  1
  Fe  Fe11  1  0.75000000  0.25000000  0.75000000  1
  Ni  Ni12  1  0.49985780  0.50014220  0.00030569  1
  Ni  Ni13  1  0.75000000  0.75000000  0.25000000  1
  Ni  Ni14  1  0.49985780  0.50014220  0.49969431  1
  Ni  Ni15  1  0.75000000  0.75000000  0.75000000  1
" 