35,NiFe60_2,-70.7373828409716, 211.259041638406,NiFe60,"# generated using pymatgen
 data_Fe9Ni7
_symmetry_space_group_name_H-M   'P 1'
_cell_length_a   4.97803174
_cell_length_b   4.97803174
_cell_length_c   7.04000000
_cell_angle_alpha   90.00000000
_cell_angle_beta   90.00000000
_cell_angle_gamma   90.00000000
_symmetry_Int_Tables_number   1
_chemical_formula_structural   Fe9Ni7
_chemical_formula_sum   'Fe9 Ni7'
_cell_volume   174.45683200
_cell_formula_units_Z   1
loop_
 _symmetry_equiv_pos_site_id
 _symmetry_equiv_pos_as_xyz
  1  'x, y, z'
loop_
 _atom_site_type_symbol
 _atom_site_label
 _atom_site_symmetry_multiplicity
 _atom_site_fract_x
 _atom_site_fract_y
 _atom_site_fract_z
 _atom_site_occupancy
  Fe  Fe0  1  0.99912996  0.00071099  0.99933220  1
  Fe  Fe1  1  0.25186813  0.25006880  0.25013224  1
  Fe  Fe2  1  0.99904720  0.00106098  0.50072227  1
  Ni  Ni3  1  0.24933325  0.24994375  0.74997779  1
  Fe  Fe4  1  0.99914211  0.49928874  0.99932301  1
  Fe  Fe5  1  0.25126476  0.74998195  0.25001447  1
  Ni  Ni6  1  0.00047609  0.50042291  0.50016245  1
  Fe  Fe7  1  0.25177085  0.74990218  0.74992362  1
  Ni  Ni8  1  0.49985061  0.00015341  0.99968345  1
  Ni  Ni9  1  0.75038473  0.24994461  0.25001989  1
  Ni  Ni10  1  0.49984652  0.99972402  0.50037940  1
  Fe  Fe11  1  0.74800005  0.25011351  0.74984196  1
  Ni  Ni12  1  0.49987980  0.49977560  0.99957874  1
  Fe  Fe13  1  0.74837887  0.74991763  0.25004031  1
  Fe  Fe14  1  0.50124886  0.49893719  0.50083504  1
  Ni  Ni15  1  0.75037823  0.75005373  0.75003316  1
" 