427,NiFe50_10,-71.0637906373185, 230.691570316167,NiFe50,"# generated using pymatgen
 data_FeNi
_symmetry_space_group_name_H-M   'P 1'
_cell_length_a   4.97803174
_cell_length_b   4.97803174
_cell_length_c   7.04000000
_cell_angle_alpha   90.00000000
_cell_angle_beta   90.00000000
_cell_angle_gamma   90.00000000
_symmetry_Int_Tables_number   1
_chemical_formula_structural   FeNi
_chemical_formula_sum   'Fe8 Ni8'
_cell_volume   174.45683200
_cell_formula_units_Z   8
loop_
 _symmetry_equiv_pos_site_id
 _symmetry_equiv_pos_as_xyz
  1  'x, y, z'
loop_
 _atom_site_type_symbol
 _atom_site_label
 _atom_site_symmetry_multiplicity
 _atom_site_fract_x
 _atom_site_fract_y
 _atom_site_fract_z
 _atom_site_occupancy
  Fe  Fe0  1  0.00009927  0.00010198  0.99874562  1
  Ni  Ni1  1  0.25000000  0.25000000  0.25000000  1
  Ni  Ni2  1  0.00003360  0.00003217  0.50052561  1
  Fe  Fe3  1  0.25000000  0.25000000  0.75000000  1
  Ni  Ni4  1  0.00003360  0.49996783  0.99947439  1
  Fe  Fe5  1  0.25000000  0.75000000  0.25000000  1
  Fe  Fe6  1  0.00009927  0.49989802  0.50125438  1
  Ni  Ni7  1  0.25000000  0.75000000  0.75000000  1
  Fe  Fe8  1  0.49990073  0.00010198  0.99874562  1
  Fe  Fe9  1  0.75000000  0.25000000  0.25000000  1
  Ni  Ni10  1  0.49996640  0.00003217  0.50052561  1
  Ni  Ni11  1  0.75000000  0.25000000  0.75000000  1
  Ni  Ni12  1  0.49996640  0.49996783  0.99947439  1
  Fe  Fe13  1  0.75000000  0.75000000  0.25000000  1
  Fe  Fe14  1  0.49990073  0.49989802  0.50125438  1
  Ni  Ni15  1  0.75000000  0.75000000  0.75000000  1
" 