97,NiFe70_4,-69.9297806712879, 204.598202250577,NiFe70,"# generated using pymatgen
 data_Fe11Ni5
_symmetry_space_group_name_H-M   'P 1'
_cell_length_a   4.97803174
_cell_length_b   4.97803174
_cell_length_c   7.04000000
_cell_angle_alpha   90.00000000
_cell_angle_beta   90.00000000
_cell_angle_gamma   90.00000000
_symmetry_Int_Tables_number   1
_chemical_formula_structural   Fe11Ni5
_chemical_formula_sum   'Fe11 Ni5'
_cell_volume   174.45683200
_cell_formula_units_Z   1
loop_
 _symmetry_equiv_pos_site_id
 _symmetry_equiv_pos_as_xyz
  1  'x, y, z'
loop_
 _atom_site_type_symbol
 _atom_site_label
 _atom_site_symmetry_multiplicity
 _atom_site_fract_x
 _atom_site_fract_y
 _atom_site_fract_z
 _atom_site_occupancy
  Fe  Fe0  1  0.99941822  0.00065412  0.99930063  1
  Fe  Fe1  1  0.25205342  0.25000000  0.25000000  1
  Fe  Fe2  1  0.99913195  0.00072609  0.50075888  1
  Fe  Fe3  1  0.25191197  0.25000000  0.75000000  1
  Fe  Fe4  1  0.99913195  0.49927391  0.99924112  1
  Fe  Fe5  1  0.25125405  0.75000000  0.25000000  1
  Fe  Fe6  1  0.99941822  0.49934588  0.50069937  1
  Ni  Ni7  1  0.24926033  0.75000000  0.75000000  1
  Fe  Fe8  1  0.50086235  0.00098218  0.99913908  1
  Ni  Ni9  1  0.75046089  0.25000000  0.25000000  1
  Ni  Ni10  1  0.49990820  0.99979228  0.50036295  1
  Ni  Ni11  1  0.75037102  0.25000000  0.75000000  1
  Ni  Ni12  1  0.49990820  0.50020772  0.99963705  1
  Fe  Fe13  1  0.74829551  0.75000000  0.25000000  1
  Fe  Fe14  1  0.50086235  0.49901782  0.50086092  1
  Fe  Fe15  1  0.74775138  0.75000000  0.75000000  1
" 